


 28 31  0  0  0  0  0  0  0  0999 V2000
   -9.5755   -0.1425  -23.8640 N   0  0  0  0  0  0  0  0  0  0  0  0
   -8.5769    0.0899  -22.8859 C   0  0  0  0  0  0  0  0  0  0  0  0
   -8.9279    0.4173  -21.7456 O   0  0  0  0  0  0  0  0  0  0  0  0
   -9.2338   -0.4419  -24.7991 H   0  0  0  0  0  0  0  0  0  0  0  0
   -7.1360   -0.0396  -23.1608 C   0  0  0  0  0  0  0  0  0  0  0  0
   -6.5916   -1.3457  -22.6041 C   0  0  0  0  0  0  0  0  0  0  0  0
   -6.6588   -1.4803  -21.1866 N   0  0  0  0  0  0  0  0  0  0  0  0
   -5.6064   -0.3359  -20.4694 S   0  0  0  0  0  0  0  0  0  0  0  0
   -4.2298   -0.9727  -20.4338 O   0  0  0  0  0  0  0  0  0  0  0  0
   -6.0407    0.0426  -19.0830 O   0  0  0  0  0  0  0  0  0  0  0  0
   -5.5697    1.0545  -21.5302 C   0  0  0  0  0  0  0  0  0  0  0  0
   -4.7703    2.1129  -21.1218 C   0  0  0  0  0  0  0  0  0  0  0  0
   -4.6652    3.2261  -21.8919 C   0  0  0  0  0  0  0  0  0  0  0  0
   -5.3584    3.2833  -23.0711 C   0  0  0  0  0  0  0  0  0  0  0  0
   -5.2016    4.7317  -24.0415 Cl  0  0  0  0  0  0  0  0  0  0  0  0
   -6.1635    2.2110  -23.4768 C   0  0  0  0  0  0  0  0  0  0  0  0
   -6.2868    1.0735  -22.7140 C   0  0  0  0  0  0  0  0  0  0  0  0
   -7.5741   -1.4079  -20.7344 H   0  0  0  0  0  0  0  0  0  0  0  0
  -10.1537   -3.0342  -22.9353 C   0  0  0  0  0  0  0  0  0  0  0  0
  -11.4211   -2.3554  -22.8698 N   0  0  0  0  0  0  0  0  0  0  0  0
  -12.5597   -2.9723  -22.4513 N   0  0  0  0  0  0  0  0  0  0  0  0
  -13.5804   -2.1386  -22.5046 C   0  0  0  0  0  0  0  0  0  0  0  0
  -13.1057   -0.9261  -22.9744 C   0  0  0  0  0  0  0  0  0  0  0  0
  -13.7216    0.2587  -23.2282 C   0  0  0  0  0  0  0  0  0  0  0  0
  -13.0018    1.2785  -23.6973 N   0  0  0  0  0  0  0  0  0  0  0  0
  -11.6711    1.1292  -23.9157 C   0  0  0  0  0  0  0  0  0  0  0  0
  -10.9822   -0.0463  -23.6791 C   0  0  0  0  0  0  0  0  0  0  0  0
  -11.7351   -1.1170  -23.1887 C   0  0  0  0  0  0  0  0  0  0  0  0
 19 20  1  0  0  0
 20 21  1  0  0  0
 21 22  2  0  0  0
 22 23  1  0  0  0
 23 24  2  0  0  0
 24 25  1  0  0  0
 25 26  2  0  0  0
 26 27  1  0  0  0
 27  1  1  0  0  0
  1  2  1  0  0  0
  2  3  2  0  0  0
  2  5  1  0  0  0
  5  6  1  0  0  0
  6  7  1  0  0  0
  7  8  1  0  0  0
  8  9  2  0  0  0
  8 10  2  0  0  0
  8 11  1  0  0  0
 11 12  2  0  0  0
 12 13  1  0  0  0
 13 14  2  0  0  0
 14 15  1  0  0  0
 14 16  1  0  0  0
 16 17  2  0  0  0
 27 28  2  0  0  0
 28 20  1  0  0  0
 28 23  1  0  0  0
 17  5  1  0  0  0
 17 11  1  0  0  0
  1  4  1  0  0  0
  7 18  1  0  0  0
M  END
> <minimizedAffinity>
-6.52756

> <CNNscore>
0.5316313505

> <CNNaffinity>
5.8649635315

> <CNN_VS>
3.1179986000

> <CNNaffinity_variance>
0.0752605349

$$$$



 28 31  0  0  0  0  0  0  0  0999 V2000
   -6.3886   -3.4306  -21.9470 N   0  0  0  0  0  0  0  0  0  0  0  0
   -6.0444   -4.7945  -21.7752 C   0  0  0  0  0  0  0  0  0  0  0  0
   -5.1627   -5.0854  -20.9576 O   0  0  0  0  0  0  0  0  0  0  0  0
   -7.1533   -3.2375  -22.6244 H   0  0  0  0  0  0  0  0  0  0  0  0
   -6.6873   -5.8870  -22.5247 C   0  0  0  0  0  0  0  0  0  0  0  0
   -5.8523   -7.1560  -22.4591 C   0  0  0  0  0  0  0  0  0  0  0  0
   -4.5637   -7.0709  -23.0626 N   0  0  0  0  0  0  0  0  0  0  0  0
   -4.7539   -6.8715  -24.7525 S   0  0  0  0  0  0  0  0  0  0  0  0
   -4.9036   -8.2619  -25.3408 O   0  0  0  0  0  0  0  0  0  0  0  0
   -3.5839   -6.1663  -25.3752 O   0  0  0  0  0  0  0  0  0  0  0  0
   -6.2401   -5.9814  -24.9945 C   0  0  0  0  0  0  0  0  0  0  0  0
   -6.5783   -5.7047  -26.3117 C   0  0  0  0  0  0  0  0  0  0  0  0
   -7.7247   -5.0353  -26.5963 C   0  0  0  0  0  0  0  0  0  0  0  0
   -8.5348   -4.6416  -25.5653 C   0  0  0  0  0  0  0  0  0  0  0  0
  -10.0058   -3.7810  -25.9650 Cl  0  0  0  0  0  0  0  0  0  0  0  0
   -8.1868   -4.9243  -24.2380 C   0  0  0  0  0  0  0  0  0  0  0  0
   -7.0309   -5.6000  -23.9244 C   0  0  0  0  0  0  0  0  0  0  0  0
   -3.9139   -6.3571  -22.7224 H   0  0  0  0  0  0  0  0  0  0  0  0
   -5.4707   -1.7577  -24.3796 C   0  0  0  0  0  0  0  0  0  0  0  0
   -5.1516   -0.9563  -23.2274 N   0  0  0  0  0  0  0  0  0  0  0  0
   -4.5802    0.2746  -23.3288 N   0  0  0  0  0  0  0  0  0  0  0  0
   -4.3741    0.7859  -22.1307 C   0  0  0  0  0  0  0  0  0  0  0  0
   -4.8232   -0.1352  -21.2001 C   0  0  0  0  0  0  0  0  0  0  0  0
   -4.8414   -0.1251  -19.8410 C   0  0  0  0  0  0  0  0  0  0  0  0
   -5.3346   -1.1787  -19.1894 N   0  0  0  0  0  0  0  0  0  0  0  0
   -5.8116   -2.2445  -19.8801 C   0  0  0  0  0  0  0  0  0  0  0  0
   -5.8236   -2.3206  -21.2610 C   0  0  0  0  0  0  0  0  0  0  0  0
   -5.3058   -1.2177  -21.9460 C   0  0  0  0  0  0  0  0  0  0  0  0
 19 20  1  0  0  0
 20 21  1  0  0  0
 21 22  2  0  0  0
 22 23  1  0  0  0
 23 24  2  0  0  0
 24 25  1  0  0  0
 25 26  2  0  0  0
 26 27  1  0  0  0
 27  1  1  0  0  0
  1  2  1  0  0  0
  2  3  2  0  0  0
  2  5  1  0  0  0
  5  6  1  0  0  0
  6  7  1  0  0  0
  7  8  1  0  0  0
  8  9  2  0  0  0
  8 10  2  0  0  0
  8 11  1  0  0  0
 11 12  2  0  0  0
 12 13  1  0  0  0
 13 14  2  0  0  0
 14 15  1  0  0  0
 14 16  1  0  0  0
 16 17  2  0  0  0
 27 28  2  0  0  0
 28 20  1  0  0  0
 28 23  1  0  0  0
 17  5  1  0  0  0
 17 11  1  0  0  0
  1  4  1  0  0  0
  7 18  1  0  0  0
M  END
> <minimizedAffinity>
-6.69742

> <CNNscore>
0.5113573074

> <CNNaffinity>
5.8751554489

> <CNN_VS>
3.0043036938

> <CNNaffinity_variance>
0.0781779736

$$$$



 28 31  0  0  0  0  0  0  0  0999 V2000
   -8.7225    0.6540  -23.7174 N   0  0  0  0  0  0  0  0  0  0  0  0
   -7.9383    0.4563  -22.5538 C   0  0  0  0  0  0  0  0  0  0  0  0
   -8.3950    0.8171  -21.4620 O   0  0  0  0  0  0  0  0  0  0  0  0
   -8.3090    0.3102  -24.6071 H   0  0  0  0  0  0  0  0  0  0  0  0
   -6.6012   -0.1601  -22.5800 C   0  0  0  0  0  0  0  0  0  0  0  0
   -6.6950   -1.6691  -22.4188 C   0  0  0  0  0  0  0  0  0  0  0  0
   -7.2285   -2.1184  -21.1756 N   0  0  0  0  0  0  0  0  0  0  0  0
   -6.1380   -1.7059  -19.9217 S   0  0  0  0  0  0  0  0  0  0  0  0
   -5.1137   -2.8228  -19.8505 O   0  0  0  0  0  0  0  0  0  0  0  0
   -6.8293   -1.5488  -18.5983 O   0  0  0  0  0  0  0  0  0  0  0  0
   -5.3423   -0.2258  -20.4074 C   0  0  0  0  0  0  0  0  0  0  0  0
   -4.4126    0.2888  -19.5147 C   0  0  0  0  0  0  0  0  0  0  0  0
   -3.7316    1.4239  -19.8166 C   0  0  0  0  0  0  0  0  0  0  0  0
   -3.9782    2.0462  -21.0108 C   0  0  0  0  0  0  0  0  0  0  0  0
   -3.0837    3.5071  -21.3708 Cl  0  0  0  0  0  0  0  0  0  0  0  0
   -4.9182    1.5209  -21.9070 C   0  0  0  0  0  0  0  0  0  0  0  0
   -5.6211    0.3734  -21.6237 C   0  0  0  0  0  0  0  0  0  0  0  0
   -8.1653   -1.8055  -20.9073 H   0  0  0  0  0  0  0  0  0  0  0  0
  -10.4242   -1.9110  -23.4280 C   0  0  0  0  0  0  0  0  0  0  0  0
  -11.3739   -0.8306  -23.4764 N   0  0  0  0  0  0  0  0  0  0  0  0
  -12.7166   -1.0331  -23.3857 N   0  0  0  0  0  0  0  0  0  0  0  0
  -13.3617    0.1136  -23.4773 C   0  0  0  0  0  0  0  0  0  0  0  0
  -12.4171    1.1133  -23.6343 C   0  0  0  0  0  0  0  0  0  0  0  0
  -12.5292    2.4595  -23.7851 C   0  0  0  0  0  0  0  0  0  0  0  0
  -11.4245    3.1918  -23.9305 N   0  0  0  0  0  0  0  0  0  0  0  0
  -10.2062    2.5949  -23.9262 C   0  0  0  0  0  0  0  0  0  0  0  0
  -10.0201    1.2326  -23.7772 C   0  0  0  0  0  0  0  0  0  0  0  0
  -11.1770    0.4629  -23.6260 C   0  0  0  0  0  0  0  0  0  0  0  0
 19 20  1  0  0  0
 20 21  1  0  0  0
 21 22  2  0  0  0
 22 23  1  0  0  0
 23 24  2  0  0  0
 24 25  1  0  0  0
 25 26  2  0  0  0
 26 27  1  0  0  0
 27  1  1  0  0  0
  1  2  1  0  0  0
  2  3  2  0  0  0
  2  5  1  0  0  0
  5  6  1  0  0  0
  6  7  1  0  0  0
  7  8  1  0  0  0
  8  9  2  0  0  0
  8 10  2  0  0  0
  8 11  1  0  0  0
 11 12  2  0  0  0
 12 13  1  0  0  0
 13 14  2  0  0  0
 14 15  1  0  0  0
 14 16  1  0  0  0
 16 17  2  0  0  0
 27 28  2  0  0  0
 28 20  1  0  0  0
 28 23  1  0  0  0
 17  5  1  0  0  0
 17 11  1  0  0  0
  1  4  1  0  0  0
  7 18  1  0  0  0
M  END
> <minimizedAffinity>
-8.00814

> <CNNscore>
0.4191370606

> <CNNaffinity>
5.7520141602

> <CNN_VS>
2.4108822346

> <CNNaffinity_variance>
0.0211629719

$$$$



 28 31  0  0  0  0  0  0  0  0999 V2000
   -7.4855    1.6468  -23.6199 N   0  0  0  0  0  0  0  0  0  0  0  0
   -7.4290    0.8297  -22.4634 C   0  0  0  0  0  0  0  0  0  0  0  0
   -8.3610    0.8850  -21.6517 O   0  0  0  0  0  0  0  0  0  0  0  0
   -6.6936    1.5458  -24.2859 H   0  0  0  0  0  0  0  0  0  0  0  0
   -6.3112   -0.0858  -22.1792 C   0  0  0  0  0  0  0  0  0  0  0  0
   -6.8172   -1.4000  -21.6058 C   0  0  0  0  0  0  0  0  0  0  0  0
   -7.4775   -1.3026  -20.3462 N   0  0  0  0  0  0  0  0  0  0  0  0
   -6.3404   -0.8246  -19.1586 S   0  0  0  0  0  0  0  0  0  0  0  0
   -5.6623   -2.0909  -18.6704 O   0  0  0  0  0  0  0  0  0  0  0  0
   -6.9881   -0.1057  -18.0107 O   0  0  0  0  0  0  0  0  0  0  0  0
   -5.1609    0.1862  -19.9628 C   0  0  0  0  0  0  0  0  0  0  0  0
   -4.1437    0.6904  -19.1648 C   0  0  0  0  0  0  0  0  0  0  0  0
   -3.1723    1.4687  -19.7071 C   0  0  0  0  0  0  0  0  0  0  0  0
   -3.2160    1.7442  -21.0474 C   0  0  0  0  0  0  0  0  0  0  0  0
   -1.9492    2.7501  -21.7164 Cl  0  0  0  0  0  0  0  0  0  0  0  0
   -4.2461    1.2318  -21.8468 C   0  0  0  0  0  0  0  0  0  0  0  0
   -5.2414    0.4420  -21.3208 C   0  0  0  0  0  0  0  0  0  0  0  0
   -8.2980   -0.6953  -20.2732 H   0  0  0  0  0  0  0  0  0  0  0  0
   -6.3831    4.2170  -22.3017 C   0  0  0  0  0  0  0  0  0  0  0  0
   -7.5956    4.6214  -22.9633 N   0  0  0  0  0  0  0  0  0  0  0  0
   -8.0429    5.9066  -22.9478 N   0  0  0  0  0  0  0  0  0  0  0  0
   -9.1805    6.0055  -23.6079 C   0  0  0  0  0  0  0  0  0  0  0  0
   -9.5016    4.7440  -24.0789 C   0  0  0  0  0  0  0  0  0  0  0  0
  -10.5556    4.2802  -24.8009 C   0  0  0  0  0  0  0  0  0  0  0  0
  -10.6123    2.9843  -25.1100 N   0  0  0  0  0  0  0  0  0  0  0  0
   -9.6264    2.1442  -24.7065 C   0  0  0  0  0  0  0  0  0  0  0  0
   -8.5274    2.5486  -23.9708 C   0  0  0  0  0  0  0  0  0  0  0  0
   -8.4667    3.9064  -23.6446 C   0  0  0  0  0  0  0  0  0  0  0  0
 19 20  1  0  0  0
 20 21  1  0  0  0
 21 22  2  0  0  0
 22 23  1  0  0  0
 23 24  2  0  0  0
 24 25  1  0  0  0
 25 26  2  0  0  0
 26 27  1  0  0  0
 27  1  1  0  0  0
  1  2  1  0  0  0
  2  3  2  0  0  0
  2  5  1  0  0  0
  5  6  1  0  0  0
  6  7  1  0  0  0
  7  8  1  0  0  0
  8  9  2  0  0  0
  8 10  2  0  0  0
  8 11  1  0  0  0
 11 12  2  0  0  0
 12 13  1  0  0  0
 13 14  2  0  0  0
 14 15  1  0  0  0
 14 16  1  0  0  0
 16 17  2  0  0  0
 27 28  2  0  0  0
 28 20  1  0  0  0
 28 23  1  0  0  0
 17  5  1  0  0  0
 17 11  1  0  0  0
  1  4  1  0  0  0
  7 18  1  0  0  0
M  END
> <minimizedAffinity>
-7.41232

> <CNNscore>
0.4138072431

> <CNNaffinity>
5.6851916313

> <CNN_VS>
2.3525733948

> <CNNaffinity_variance>
0.1279329211

$$$$



 28 31  0  0  0  0  0  0  0  0999 V2000
   -9.8328    2.4439  -23.4505 N   0  0  0  0  0  0  0  0  0  0  0  0
   -9.3760    1.2663  -24.0929 C   0  0  0  0  0  0  0  0  0  0  0  0
   -9.3411    1.2404  -25.3293 O   0  0  0  0  0  0  0  0  0  0  0  0
   -9.8184    2.4285  -22.4110 H   0  0  0  0  0  0  0  0  0  0  0  0
   -8.9389    0.0672  -23.3584 C   0  0  0  0  0  0  0  0  0  0  0  0
   -7.4874   -0.2620  -23.6696 C   0  0  0  0  0  0  0  0  0  0  0  0
   -7.2162   -0.6032  -25.0268 N   0  0  0  0  0  0  0  0  0  0  0  0
   -7.9908   -2.0858  -25.3922 S   0  0  0  0  0  0  0  0  0  0  0  0
   -7.0451   -3.1898  -24.9579 O   0  0  0  0  0  0  0  0  0  0  0  0
   -8.3055   -2.2156  -26.8545 O   0  0  0  0  0  0  0  0  0  0  0  0
   -9.4415   -2.1545  -24.4172 C   0  0  0  0  0  0  0  0  0  0  0  0
  -10.2274   -3.2878  -24.5712 C   0  0  0  0  0  0  0  0  0  0  0  0
  -11.3621   -3.4365  -23.8406 C   0  0  0  0  0  0  0  0  0  0  0  0
  -11.7129   -2.4532  -22.9550 C   0  0  0  0  0  0  0  0  0  0  0  0
  -13.1810   -2.6747  -22.0277 Cl  0  0  0  0  0  0  0  0  0  0  0  0
  -10.9146   -1.3118  -22.8049 C   0  0  0  0  0  0  0  0  0  0  0  0
   -9.7616   -1.1379  -23.5339 C   0  0  0  0  0  0  0  0  0  0  0  0
   -7.4535    0.0754  -25.7553 H   0  0  0  0  0  0  0  0  0  0  0  0
  -12.8705    1.8803  -23.5639 C   0  0  0  0  0  0  0  0  0  0  0  0
  -12.7109    3.2038  -24.1065 N   0  0  0  0  0  0  0  0  0  0  0  0
  -13.7657    3.9521  -24.5303 N   0  0  0  0  0  0  0  0  0  0  0  0
  -13.3477    5.1115  -24.9997 C   0  0  0  0  0  0  0  0  0  0  0  0
  -11.9684    5.1364  -24.8848 C   0  0  0  0  0  0  0  0  0  0  0  0
  -11.0412    6.0717  -25.2208 C   0  0  0  0  0  0  0  0  0  0  0  0
   -9.7510    5.8165  -25.0015 N   0  0  0  0  0  0  0  0  0  0  0  0
   -9.3746    4.6361  -24.4486 C   0  0  0  0  0  0  0  0  0  0  0  0
  -10.2641    3.6422  -24.0832 C   0  0  0  0  0  0  0  0  0  0  0  0
  -11.6170    3.9071  -24.3135 C   0  0  0  0  0  0  0  0  0  0  0  0
 19 20  1  0  0  0
 20 21  1  0  0  0
 21 22  2  0  0  0
 22 23  1  0  0  0
 23 24  2  0  0  0
 24 25  1  0  0  0
 25 26  2  0  0  0
 26 27  1  0  0  0
 27  1  1  0  0  0
  1  2  1  0  0  0
  2  3  2  0  0  0
  2  5  1  0  0  0
  5  6  1  0  0  0
  6  7  1  0  0  0
  7  8  1  0  0  0
  8  9  2  0  0  0
  8 10  2  0  0  0
  8 11  1  0  0  0
 11 12  2  0  0  0
 12 13  1  0  0  0
 13 14  2  0  0  0
 14 15  1  0  0  0
 14 16  1  0  0  0
 16 17  2  0  0  0
 27 28  2  0  0  0
 28 20  1  0  0  0
 28 23  1  0  0  0
 17  5  1  0  0  0
 17 11  1  0  0  0
  1  4  1  0  0  0
  7 18  1  0  0  0
M  END
> <minimizedAffinity>
-6.82243

> <CNNscore>
0.3402685821

> <CNNaffinity>
5.5319032669

> <CNN_VS>
1.8823329210

> <CNNaffinity_variance>
0.3276477456

$$$$



 28 31  0  0  0  0  0  0  0  0999 V2000
   -9.3647    0.9604  -23.7491 N   0  0  0  0  0  0  0  0  0  0  0  0
   -8.5775    0.5725  -22.6364 C   0  0  0  0  0  0  0  0  0  0  0  0
   -9.0393    0.7293  -21.4994 O   0  0  0  0  0  0  0  0  0  0  0  0
   -8.9463    0.7842  -24.6844 H   0  0  0  0  0  0  0  0  0  0  0  0
   -7.2317   -0.0108  -22.7673 C   0  0  0  0  0  0  0  0  0  0  0  0
   -7.2643   -1.5121  -22.5290 C   0  0  0  0  0  0  0  0  0  0  0  0
   -7.6596   -1.9141  -21.2197 N   0  0  0  0  0  0  0  0  0  0  0  0
   -6.4642   -1.4142  -20.1005 S   0  0  0  0  0  0  0  0  0  0  0  0
   -5.4051   -2.5003  -20.0807 O   0  0  0  0  0  0  0  0  0  0  0  0
   -7.0267   -1.2108  -18.7235 O   0  0  0  0  0  0  0  0  0  0  0  0
   -5.7643    0.0602  -20.7299 C   0  0  0  0  0  0  0  0  0  0  0  0
   -4.7673    0.6405  -19.9584 C   0  0  0  0  0  0  0  0  0  0  0  0
   -4.1532    1.7764  -20.3779 C   0  0  0  0  0  0  0  0  0  0  0  0
   -4.5342    2.3339  -21.5688 C   0  0  0  0  0  0  0  0  0  0  0  0
   -3.7232    3.7977  -22.0821 Cl  0  0  0  0  0  0  0  0  0  0  0  0
   -5.5416    1.7425  -22.3423 C   0  0  0  0  0  0  0  0  0  0  0  0
   -6.1788    0.5927  -21.9384 C   0  0  0  0  0  0  0  0  0  0  0  0
   -8.5745   -1.6122  -20.8742 H   0  0  0  0  0  0  0  0  0  0  0  0
   -8.6259    3.9530  -23.9881 C   0  0  0  0  0  0  0  0  0  0  0  0
  -10.0647    3.9189  -23.9695 N   0  0  0  0  0  0  0  0  0  0  0  0
  -10.8237    5.0447  -24.0625 N   0  0  0  0  0  0  0  0  0  0  0  0
  -12.1057    4.7412  -24.0008 C   0  0  0  0  0  0  0  0  0  0  0  0
  -12.2039    3.3674  -23.8621 C   0  0  0  0  0  0  0  0  0  0  0  0
  -13.2727    2.5361  -23.7429 C   0  0  0  0  0  0  0  0  0  0  0  0
  -13.0655    1.2257  -23.6087 N   0  0  0  0  0  0  0  0  0  0  0  0
  -11.8011    0.7342  -23.5928 C   0  0  0  0  0  0  0  0  0  0  0  0
  -10.6704    1.5220  -23.7094 C   0  0  0  0  0  0  0  0  0  0  0  0
  -10.8853    2.8961  -23.8488 C   0  0  0  0  0  0  0  0  0  0  0  0
 19 20  1  0  0  0
 20 21  1  0  0  0
 21 22  2  0  0  0
 22 23  1  0  0  0
 23 24  2  0  0  0
 24 25  1  0  0  0
 25 26  2  0  0  0
 26 27  1  0  0  0
 27  1  1  0  0  0
  1  2  1  0  0  0
  2  3  2  0  0  0
  2  5  1  0  0  0
  5  6  1  0  0  0
  6  7  1  0  0  0
  7  8  1  0  0  0
  8  9  2  0  0  0
  8 10  2  0  0  0
  8 11  1  0  0  0
 11 12  2  0  0  0
 12 13  1  0  0  0
 13 14  2  0  0  0
 14 15  1  0  0  0
 14 16  1  0  0  0
 16 17  2  0  0  0
 27 28  2  0  0  0
 28 20  1  0  0  0
 28 23  1  0  0  0
 17  5  1  0  0  0
 17 11  1  0  0  0
  1  4  1  0  0  0
  7 18  1  0  0  0
M  END
> <minimizedAffinity>
-7.71047

> <CNNscore>
0.3015145063

> <CNNaffinity>
5.6700544357

> <CNN_VS>
1.7096036673

> <CNNaffinity_variance>
0.0988647789

$$$$



 28 31  0  0  0  0  0  0  0  0999 V2000
   -3.9470    0.1969  -22.7767 N   0  0  0  0  0  0  0  0  0  0  0  0
   -4.6142    1.3477  -22.2884 C   0  0  0  0  0  0  0  0  0  0  0  0
   -4.4001    2.4355  -22.8375 O   0  0  0  0  0  0  0  0  0  0  0  0
   -4.1793   -0.6982  -22.3015 H   0  0  0  0  0  0  0  0  0  0  0  0
   -5.5538    1.3126  -21.1551 C   0  0  0  0  0  0  0  0  0  0  0  0
   -4.8389    0.9337  -19.8677 C   0  0  0  0  0  0  0  0  0  0  0  0
   -4.2674   -0.3721  -19.8483 N   0  0  0  0  0  0  0  0  0  0  0  0
   -5.5274   -1.5305  -19.8955 S   0  0  0  0  0  0  0  0  0  0  0  0
   -5.9796   -1.7407  -18.4627 O   0  0  0  0  0  0  0  0  0  0  0  0
   -5.0788   -2.8316  -20.4956 O   0  0  0  0  0  0  0  0  0  0  0  0
   -6.8360   -0.8201  -20.8135 C   0  0  0  0  0  0  0  0  0  0  0  0
   -7.9652   -1.6098  -20.9779 C   0  0  0  0  0  0  0  0  0  0  0  0
   -9.0384   -1.1334  -21.6597 C   0  0  0  0  0  0  0  0  0  0  0  0
   -8.9848    0.1326  -22.1778 C   0  0  0  0  0  0  0  0  0  0  0  0
  -10.3845    0.7179  -23.0510 Cl  0  0  0  0  0  0  0  0  0  0  0  0
   -7.8413    0.9240  -22.0079 C   0  0  0  0  0  0  0  0  0  0  0  0
   -6.7417    0.4637  -21.3222 C   0  0  0  0  0  0  0  0  0  0  0  0
   -3.5786   -0.6119  -20.5663 H   0  0  0  0  0  0  0  0  0  0  0  0
   -5.6292   -1.4810  -24.7549 C   0  0  0  0  0  0  0  0  0  0  0  0
   -4.4250   -1.1485  -25.4698 N   0  0  0  0  0  0  0  0  0  0  0  0
   -4.2056   -1.5411  -26.7542 N   0  0  0  0  0  0  0  0  0  0  0  0
   -3.0237   -1.1256  -27.1664 C   0  0  0  0  0  0  0  0  0  0  0  0
   -2.4362   -0.4332  -26.1216 C   0  0  0  0  0  0  0  0  0  0  0  0
   -1.2333    0.1879  -26.0002 C   0  0  0  0  0  0  0  0  0  0  0  0
   -0.9197    0.7783  -24.8465 N   0  0  0  0  0  0  0  0  0  0  0  0
   -1.7952    0.7567  -23.8104 C   0  0  0  0  0  0  0  0  0  0  0  0
   -3.0340    0.1442  -23.8656 C   0  0  0  0  0  0  0  0  0  0  0  0
   -3.3641   -0.4766  -25.0737 C   0  0  0  0  0  0  0  0  0  0  0  0
 19 20  1  0  0  0
 20 21  1  0  0  0
 21 22  2  0  0  0
 22 23  1  0  0  0
 23 24  2  0  0  0
 24 25  1  0  0  0
 25 26  2  0  0  0
 26 27  1  0  0  0
 27  1  1  0  0  0
  1  2  1  0  0  0
  2  3  2  0  0  0
  2  5  1  0  0  0
  5  6  1  0  0  0
  6  7  1  0  0  0
  7  8  1  0  0  0
  8  9  2  0  0  0
  8 10  2  0  0  0
  8 11  1  0  0  0
 11 12  2  0  0  0
 12 13  1  0  0  0
 13 14  2  0  0  0
 14 15  1  0  0  0
 14 16  1  0  0  0
 16 17  2  0  0  0
 27 28  2  0  0  0
 28 20  1  0  0  0
 28 23  1  0  0  0
 17  5  1  0  0  0
 17 11  1  0  0  0
  1  4  1  0  0  0
  7 18  1  0  0  0
M  END
> <minimizedAffinity>
-6.05363

> <CNNscore>
0.2986999154

> <CNNaffinity>
5.5036478043

> <CNN_VS>
1.6439391375

> <CNNaffinity_variance>
0.2365166694

$$$$



 28 31  0  0  0  0  0  0  0  0999 V2000
   -9.8182   -1.9986  -23.5205 N   0  0  0  0  0  0  0  0  0  0  0  0
   -9.3548   -2.7273  -24.6441 C   0  0  0  0  0  0  0  0  0  0  0  0
  -10.1818   -3.1361  -25.4684 O   0  0  0  0  0  0  0  0  0  0  0  0
   -9.0846   -1.6523  -22.8703 H   0  0  0  0  0  0  0  0  0  0  0  0
   -7.9316   -3.0230  -24.8799 C   0  0  0  0  0  0  0  0  0  0  0  0
   -7.4856   -2.5015  -26.2368 C   0  0  0  0  0  0  0  0  0  0  0  0
   -8.1258   -3.0996  -27.3613 N   0  0  0  0  0  0  0  0  0  0  0  0
   -7.6605   -4.7447  -27.4553 S   0  0  0  0  0  0  0  0  0  0  0  0
   -6.3504   -4.7835  -28.2195 O   0  0  0  0  0  0  0  0  0  0  0  0
   -8.6922   -5.5868  -28.1484 O   0  0  0  0  0  0  0  0  0  0  0  0
   -7.3864   -5.2893  -25.8158 C   0  0  0  0  0  0  0  0  0  0  0  0
   -7.0035   -6.6151  -25.6690 C   0  0  0  0  0  0  0  0  0  0  0  0
   -6.7500   -7.1200  -24.4344 C   0  0  0  0  0  0  0  0  0  0  0  0
   -6.8785   -6.3009  -23.3450 C   0  0  0  0  0  0  0  0  0  0  0  0
   -6.5441   -6.9815  -21.7673 Cl  0  0  0  0  0  0  0  0  0  0  0  0
   -7.2656   -4.9636  -23.5009 C   0  0  0  0  0  0  0  0  0  0  0  0
   -7.5286   -4.4294  -24.7405 C   0  0  0  0  0  0  0  0  0  0  0  0
   -9.1459   -3.0465  -27.4248 H   0  0  0  0  0  0  0  0  0  0  0  0
   -9.7700    0.9978  -24.2805 C   0  0  0  0  0  0  0  0  0  0  0  0
  -11.1316    0.7255  -23.9021 N   0  0  0  0  0  0  0  0  0  0  0  0
  -12.1034    1.6778  -23.9340 N   0  0  0  0  0  0  0  0  0  0  0  0
  -13.2516    1.1767  -23.5216 C   0  0  0  0  0  0  0  0  0  0  0  0
  -13.0375   -0.1536  -23.2045 C   0  0  0  0  0  0  0  0  0  0  0  0
  -13.8631   -1.1229  -22.7285 C   0  0  0  0  0  0  0  0  0  0  0  0
  -13.3714   -2.3408  -22.4988 N   0  0  0  0  0  0  0  0  0  0  0  0
  -12.0624   -2.6035  -22.7400 C   0  0  0  0  0  0  0  0  0  0  0  0
  -11.1684   -1.6657  -23.2238 C   0  0  0  0  0  0  0  0  0  0  0  0
  -11.6815   -0.3879  -23.4640 C   0  0  0  0  0  0  0  0  0  0  0  0
 19 20  1  0  0  0
 20 21  1  0  0  0
 21 22  2  0  0  0
 22 23  1  0  0  0
 23 24  2  0  0  0
 24 25  1  0  0  0
 25 26  2  0  0  0
 26 27  1  0  0  0
 27  1  1  0  0  0
  1  2  1  0  0  0
  2  3  2  0  0  0
  2  5  1  0  0  0
  5  6  1  0  0  0
  6  7  1  0  0  0
  7  8  1  0  0  0
  8  9  2  0  0  0
  8 10  2  0  0  0
  8 11  1  0  0  0
 11 12  2  0  0  0
 12 13  1  0  0  0
 13 14  2  0  0  0
 14 15  1  0  0  0
 14 16  1  0  0  0
 16 17  2  0  0  0
 27 28  2  0  0  0
 28 20  1  0  0  0
 28 23  1  0  0  0
 17  5  1  0  0  0
 17 11  1  0  0  0
  1  4  1  0  0  0
  7 18  1  0  0  0
M  END
> <minimizedAffinity>
-7.23094

> <CNNscore>
0.2387318164

> <CNNaffinity>
5.4849367142

> <CNN_VS>
1.3094289303

> <CNNaffinity_variance>
0.2262057066

$$$$



 28 31  0  0  0  0  0  0  0  0999 V2000
   -8.9159    0.3608  -23.5337 N   0  0  0  0  0  0  0  0  0  0  0  0
   -8.1428    1.0399  -22.5594 C   0  0  0  0  0  0  0  0  0  0  0  0
   -8.3617    0.8114  -21.3634 O   0  0  0  0  0  0  0  0  0  0  0  0
   -8.6774    0.5646  -24.5250 H   0  0  0  0  0  0  0  0  0  0  0  0
   -7.0872    2.0080  -22.9017 C   0  0  0  0  0  0  0  0  0  0  0  0
   -7.1937    2.4366  -24.3567 C   0  0  0  0  0  0  0  0  0  0  0  0
   -6.9975    1.3994  -25.3147 N   0  0  0  0  0  0  0  0  0  0  0  0
   -5.3725    0.8666  -25.2314 S   0  0  0  0  0  0  0  0  0  0  0  0
   -4.5637    1.7955  -26.1172 O   0  0  0  0  0  0  0  0  0  0  0  0
   -5.2179   -0.5547  -25.6897 O   0  0  0  0  0  0  0  0  0  0  0  0
   -4.8583    1.0628  -23.5710 C   0  0  0  0  0  0  0  0  0  0  0  0
   -3.5564    0.6763  -23.2854 C   0  0  0  0  0  0  0  0  0  0  0  0
   -3.0645    0.8110  -22.0271 C   0  0  0  0  0  0  0  0  0  0  0  0
   -3.8725    1.3321  -21.0526 C   0  0  0  0  0  0  0  0  0  0  0  0
   -3.2089    1.4934  -19.4409 Cl  0  0  0  0  0  0  0  0  0  0  0  0
   -5.1859    1.7200  -21.3483 C   0  0  0  0  0  0  0  0  0  0  0  0
   -5.7070    1.5927  -22.6145 C   0  0  0  0  0  0  0  0  0  0  0  0
   -7.6102    0.5805  -25.2767 H   0  0  0  0  0  0  0  0  0  0  0  0
  -11.3789    2.2057  -23.8310 C   0  0  0  0  0  0  0  0  0  0  0  0
  -11.9169    0.8915  -23.5963 N   0  0  0  0  0  0  0  0  0  0  0  0
  -13.2548    0.6462  -23.5548 N   0  0  0  0  0  0  0  0  0  0  0  0
  -13.4808   -0.6290  -23.3056 C   0  0  0  0  0  0  0  0  0  0  0  0
  -12.2524   -1.2540  -23.1768 C   0  0  0  0  0  0  0  0  0  0  0  0
  -11.9066   -2.5416  -22.9119 C   0  0  0  0  0  0  0  0  0  0  0  0
  -10.6155   -2.8650  -22.8325 N   0  0  0  0  0  0  0  0  0  0  0  0
   -9.6632   -1.9162  -23.0157 C   0  0  0  0  0  0  0  0  0  0  0  0
   -9.9445   -0.5898  -23.2882 C   0  0  0  0  0  0  0  0  0  0  0  0
  -11.2974   -0.2483  -23.3705 C   0  0  0  0  0  0  0  0  0  0  0  0
 19 20  1  0  0  0
 20 21  1  0  0  0
 21 22  2  0  0  0
 22 23  1  0  0  0
 23 24  2  0  0  0
 24 25  1  0  0  0
 25 26  2  0  0  0
 26 27  1  0  0  0
 27  1  1  0  0  0
  1  2  1  0  0  0
  2  3  2  0  0  0
  2  5  1  0  0  0
  5  6  1  0  0  0
  6  7  1  0  0  0
  7  8  1  0  0  0
  8  9  2  0  0  0
  8 10  2  0  0  0
  8 11  1  0  0  0
 11 12  2  0  0  0
 12 13  1  0  0  0
 13 14  2  0  0  0
 14 15  1  0  0  0
 14 16  1  0  0  0
 16 17  2  0  0  0
 27 28  2  0  0  0
 28 20  1  0  0  0
 28 23  1  0  0  0
 17  5  1  0  0  0
 17 11  1  0  0  0
  1  4  1  0  0  0
  7 18  1  0  0  0
M  END
> <minimizedAffinity>
-6.39415

> <CNNscore>
0.2143263221

> <CNNaffinity>
5.2999768257

> <CNN_VS>
1.1359245777

> <CNNaffinity_variance>
0.0916726440

$$$$
