


 37 41  0  0  0  0  0  0  0  0999 V2000
    6.8592   -1.5115   23.1420 N   0  0  0  0  0  0  0  0  0  0  0  0
    6.0367   -0.5703   22.4813 C   0  0  0  0  0  0  0  0  0  0  0  0
    4.7863   -0.6458   22.5518 O   0  0  0  0  0  0  0  0  0  0  0  0
   10.7606   -3.8321   25.5997 C   0  0  0  0  0  0  0  0  0  0  0  0
    9.7374   -4.4733   25.2926 O   0  0  0  0  0  0  0  0  0  0  0  0
   11.2257   -2.6372   24.9905 N   0  0  0  0  0  0  0  0  0  0  0  0
   12.4631   -1.9904   25.3627 C   0  0  0  0  0  0  0  0  0  0  0  0
   13.0664   -1.1765   24.2956 C   0  0  0  0  0  0  0  0  0  0  0  0
   12.6021   -1.4535   22.8974 C   0  0  0  0  0  0  0  0  0  0  0  0
   11.1031   -1.4443   22.8687 C   0  0  0  0  0  0  0  0  0  0  0  0
   10.3411   -0.8837   21.8915 C   0  0  0  0  0  0  0  0  0  0  0  0
    8.9490   -0.9211   21.9910 C   0  0  0  0  0  0  0  0  0  0  0  0
    8.2898   -1.5139   23.0594 C   0  0  0  0  0  0  0  0  0  0  0  0
    9.0739   -2.0806   24.0438 C   0  0  0  0  0  0  0  0  0  0  0  0
   10.4456   -2.0472   23.9528 C   0  0  0  0  0  0  0  0  0  0  0  0
   10.7551   -4.5461   27.9819 C   0  0  0  0  0  0  0  0  0  0  0  0
   11.5684   -4.3816   26.7200 C   0  0  0  0  0  0  0  0  0  0  0  0
    6.1951   -2.4633   23.9461 N   0  0  0  0  0  0  0  0  0  0  0  0
    5.8282   -1.9590   25.2788 C   0  0  0  0  0  0  0  0  0  0  0  0
    5.9011   -3.7745   23.5820 C   0  0  0  0  0  0  0  0  0  0  0  0
    5.8276   -4.2572   22.3040 C   0  0  0  0  0  0  0  0  0  0  0  0
    5.5576   -5.5962   22.0266 C   0  0  0  0  0  0  0  0  0  0  0  0
    5.3528   -6.4886   23.0555 C   0  0  0  0  0  0  0  0  0  0  0  0
    5.4198   -6.0285   24.3635 C   0  0  0  0  0  0  0  0  0  0  0  0
    5.1571   -7.1740   25.6586 Cl  0  0  0  0  0  0  0  0  0  0  0  0
    5.6886   -4.7005   24.6043 C   0  0  0  0  0  0  0  0  0  0  0  0
    6.6623    0.5174   21.7005 C   0  0  0  0  0  0  0  0  0  0  0  0
    6.1187    0.5709   20.3145 C   0  0  0  0  0  0  0  0  0  0  0  0
    6.6811   -0.1357   19.2534 C   0  0  0  0  0  0  0  0  0  0  0  0
    6.1491   -0.0435   18.0224 N   0  0  0  0  0  0  0  0  0  0  0  0
    5.0767    0.7079   17.7323 C   0  0  0  0  0  0  0  0  0  0  0  0
    4.5052    1.4177   18.7789 C   0  0  0  0  0  0  0  0  0  0  0  0
    3.4016    2.2008   18.5276 C   0  0  0  0  0  0  0  0  0  0  0  0
    2.8059    2.9169   19.5376 C   0  0  0  0  0  0  0  0  0  0  0  0
    3.3020    2.8672   20.8311 C   0  0  0  0  0  0  0  0  0  0  0  0
    4.4182    2.0672   21.0542 C   0  0  0  0  0  0  0  0  0  0  0  0
    5.0248    1.3459   20.0566 C   0  0  0  0  0  0  0  0  0  0  0  0
 16 17  1  0  0  0
 17  4  1  0  0  0
  4  5  2  0  0  0
  4  6  1  0  0  0
  6  7  1  0  0  0
  7  8  1  0  0  0
  8  9  1  0  0  0
  9 10  1  0  0  0
 10 11  2  0  0  0
 11 12  1  0  0  0
 12 13  2  0  0  0
 13  1  1  0  0  0
  1  2  1  0  0  0
  2  3  2  0  0  0
  2 27  1  0  0  0
 27 28  1  0  0  0
 28 29  2  0  0  0
 29 30  1  0  0  0
 30 31  2  0  0  0
 31 32  1  0  0  0
 32 33  2  0  0  0
 33 34  1  0  0  0
 34 35  2  0  0  0
 35 36  1  0  0  0
 36 37  2  0  0  0
  1 18  1  0  0  0
 18 19  1  0  0  0
 18 20  1  0  0  0
 20 21  2  0  0  0
 21 22  1  0  0  0
 22 23  2  0  0  0
 23 24  1  0  0  0
 24 25  1  0  0  0
 24 26  2  0  0  0
 13 14  1  0  0  0
 14 15  2  0  0  0
 15  6  1  0  0  0
 15 10  1  0  0  0
 37 28  1  0  0  0
 26 20  1  0  0  0
 37 32  1  0  0  0
M  END
> <minimizedAffinity>
-9.41409

> <CNNscore>
0.8059092760

> <CNNaffinity>
7.5810880661

> <CNN_VS>
6.1096692085

> <CNNaffinity_variance>
0.0664252117

$$$$



 37 41  0  0  0  0  0  0  0  0999 V2000
    8.1729    0.0670   23.1205 N   0  0  0  0  0  0  0  0  0  0  0  0
    7.6367    0.2375   21.8235 C   0  0  0  0  0  0  0  0  0  0  0  0
    8.2440    0.9144   20.9591 O   0  0  0  0  0  0  0  0  0  0  0  0
    7.3699   -4.8754   24.3754 C   0  0  0  0  0  0  0  0  0  0  0  0
    8.4867   -4.5005   23.9698 O   0  0  0  0  0  0  0  0  0  0  0  0
    6.3703   -4.0642   24.9737 N   0  0  0  0  0  0  0  0  0  0  0  0
    5.1238   -4.5912   25.4804 C   0  0  0  0  0  0  0  0  0  0  0  0
    4.5146   -3.7842   26.5494 C   0  0  0  0  0  0  0  0  0  0  0  0
    5.4169   -2.8192   27.2579 C   0  0  0  0  0  0  0  0  0  0  0  0
    6.1464   -1.9942   26.2406 C   0  0  0  0  0  0  0  0  0  0  0  0
    6.3767   -0.6570   26.3346 C   0  0  0  0  0  0  0  0  0  0  0  0
    7.0507    0.0042   25.3061 C   0  0  0  0  0  0  0  0  0  0  0  0
    7.5071   -0.6481   24.1687 C   0  0  0  0  0  0  0  0  0  0  0  0
    7.2687   -2.0050   24.0856 C   0  0  0  0  0  0  0  0  0  0  0  0
    6.6050   -2.6628   25.0944 C   0  0  0  0  0  0  0  0  0  0  0  0
    6.7619   -6.6780   22.7736 C   0  0  0  0  0  0  0  0  0  0  0  0
    7.0621   -6.3202   24.2099 C   0  0  0  0  0  0  0  0  0  0  0  0
    9.4541    0.6174   23.3424 N   0  0  0  0  0  0  0  0  0  0  0  0
    9.4475    2.0778   23.5221 C   0  0  0  0  0  0  0  0  0  0  0  0
   10.6507   -0.0931   23.3811 C   0  0  0  0  0  0  0  0  0  0  0  0
   11.5194   -0.2629   22.3379 C   0  0  0  0  0  0  0  0  0  0  0  0
   12.7162   -0.9650   22.4702 C   0  0  0  0  0  0  0  0  0  0  0  0
   13.0633   -1.5188   23.6825 C   0  0  0  0  0  0  0  0  0  0  0  0
   12.2016   -1.3645   24.7599 C   0  0  0  0  0  0  0  0  0  0  0  0
   12.6565   -2.0739   26.2923 Cl  0  0  0  0  0  0  0  0  0  0  0  0
   11.0274   -0.6654   24.5968 C   0  0  0  0  0  0  0  0  0  0  0  0
    6.3445   -0.3943   21.4844 C   0  0  0  0  0  0  0  0  0  0  0  0
    5.8479    0.0668   20.1576 C   0  0  0  0  0  0  0  0  0  0  0  0
    6.4596   -0.2863   18.9564 C   0  0  0  0  0  0  0  0  0  0  0  0
    5.9686    0.1654   17.7895 N   0  0  0  0  0  0  0  0  0  0  0  0
    4.8930    0.9611   17.6958 C   0  0  0  0  0  0  0  0  0  0  0  0
    4.2727    1.3214   18.8837 C   0  0  0  0  0  0  0  0  0  0  0  0
    3.1640    2.1356   18.8352 C   0  0  0  0  0  0  0  0  0  0  0  0
    2.5207    2.5128   19.9892 C   0  0  0  0  0  0  0  0  0  0  0  0
    2.9728    2.0826   21.2271 C   0  0  0  0  0  0  0  0  0  0  0  0
    4.0954    1.2609   21.2441 C   0  0  0  0  0  0  0  0  0  0  0  0
    4.7493    0.8751   20.1008 C   0  0  0  0  0  0  0  0  0  0  0  0
 16 17  1  0  0  0
 17  4  1  0  0  0
  4  5  2  0  0  0
  4  6  1  0  0  0
  6  7  1  0  0  0
  7  8  1  0  0  0
  8  9  1  0  0  0
  9 10  1  0  0  0
 10 11  2  0  0  0
 11 12  1  0  0  0
 12 13  2  0  0  0
 13  1  1  0  0  0
  1  2  1  0  0  0
  2  3  2  0  0  0
  2 27  1  0  0  0
 27 28  1  0  0  0
 28 29  2  0  0  0
 29 30  1  0  0  0
 30 31  2  0  0  0
 31 32  1  0  0  0
 32 33  2  0  0  0
 33 34  1  0  0  0
 34 35  2  0  0  0
 35 36  1  0  0  0
 36 37  2  0  0  0
  1 18  1  0  0  0
 18 19  1  0  0  0
 18 20  1  0  0  0
 20 21  2  0  0  0
 21 22  1  0  0  0
 22 23  2  0  0  0
 23 24  1  0  0  0
 24 25  1  0  0  0
 24 26  2  0  0  0
 13 14  1  0  0  0
 14 15  2  0  0  0
 15  6  1  0  0  0
 15 10  1  0  0  0
 37 28  1  0  0  0
 26 20  1  0  0  0
 37 32  1  0  0  0
M  END
> <minimizedAffinity>
-9.12019

> <CNNscore>
0.7734559774

> <CNNaffinity>
7.4975295067

> <CNN_VS>
5.7990088463

> <CNNaffinity_variance>
0.0753910914

$$$$



 37 41  0  0  0  0  0  0  0  0999 V2000
    9.2821   -0.3580   23.7058 N   0  0  0  0  0  0  0  0  0  0  0  0
    8.8848   -1.3491   22.7791 C   0  0  0  0  0  0  0  0  0  0  0  0
    9.7368   -2.0103   22.1380 O   0  0  0  0  0  0  0  0  0  0  0  0
    6.8824    4.1499   22.9527 C   0  0  0  0  0  0  0  0  0  0  0  0
    6.9704    3.3193   22.0280 O   0  0  0  0  0  0  0  0  0  0  0  0
    6.9610    3.8794   24.3440 N   0  0  0  0  0  0  0  0  0  0  0  0
    6.7805    4.8936   25.3575 C   0  0  0  0  0  0  0  0  0  0  0  0
    6.3069    4.3791   26.6521 C   0  0  0  0  0  0  0  0  0  0  0  0
    5.6752    3.0196   26.6427 C   0  0  0  0  0  0  0  0  0  0  0  0
    6.5807    2.0641   25.9252 C   0  0  0  0  0  0  0  0  0  0  0  0
    6.8431    0.7884   26.3170 C   0  0  0  0  0  0  0  0  0  0  0  0
    7.7257    0.0027   25.5733 C   0  0  0  0  0  0  0  0  0  0  0  0
    8.3621    0.4677   24.4305 C   0  0  0  0  0  0  0  0  0  0  0  0
    8.0866    1.7632   24.0423 C   0  0  0  0  0  0  0  0  0  0  0  0
    7.2188    2.5431   24.7700 C   0  0  0  0  0  0  0  0  0  0  0  0
    5.6749    5.6952   21.4234 C   0  0  0  0  0  0  0  0  0  0  0  0
    6.6757    5.5648   22.5469 C   0  0  0  0  0  0  0  0  0  0  0  0
   10.6710   -0.2320   23.9260 N   0  0  0  0  0  0  0  0  0  0  0  0
   11.2781    0.9156   23.2335 C   0  0  0  0  0  0  0  0  0  0  0  0
   11.4547   -1.0861   24.6971 C   0  0  0  0  0  0  0  0  0  0  0  0
   12.8196   -1.0634   24.7872 C   0  0  0  0  0  0  0  0  0  0  0  0
   13.5276   -1.9373   25.6105 C   0  0  0  0  0  0  0  0  0  0  0  0
   12.8561   -2.8677   26.3723 C   0  0  0  0  0  0  0  0  0  0  0  0
   11.4705   -2.9160   26.3014 C   0  0  0  0  0  0  0  0  0  0  0  0
   10.6325   -4.1033   27.2745 Cl  0  0  0  0  0  0  0  0  0  0  0  0
   10.8007   -2.0393   25.4790 C   0  0  0  0  0  0  0  0  0  0  0  0
    7.4453   -1.6088   22.5679 C   0  0  0  0  0  0  0  0  0  0  0  0
    6.8811   -0.7116   21.5209 C   0  0  0  0  0  0  0  0  0  0  0  0
    7.4627   -0.5563   20.2642 C   0  0  0  0  0  0  0  0  0  0  0  0
    6.9104    0.2726   19.3616 N   0  0  0  0  0  0  0  0  0  0  0  0
    5.7992    0.9871   19.5932 C   0  0  0  0  0  0  0  0  0  0  0  0
    5.2083    0.8430   20.8405 C   0  0  0  0  0  0  0  0  0  0  0  0
    4.0649    1.5558   21.1216 C   0  0  0  0  0  0  0  0  0  0  0  0
    3.4491    1.4388   22.3442 C   0  0  0  0  0  0  0  0  0  0  0  0
    3.9642    0.6012   23.3213 C   0  0  0  0  0  0  0  0  0  0  0  0
    5.1206   -0.1061   23.0080 C   0  0  0  0  0  0  0  0  0  0  0  0
    5.7479   -0.0005   21.7919 C   0  0  0  0  0  0  0  0  0  0  0  0
 16 17  1  0  0  0
 17  4  1  0  0  0
  4  5  2  0  0  0
  4  6  1  0  0  0
  6  7  1  0  0  0
  7  8  1  0  0  0
  8  9  1  0  0  0
  9 10  1  0  0  0
 10 11  2  0  0  0
 11 12  1  0  0  0
 12 13  2  0  0  0
 13  1  1  0  0  0
  1  2  1  0  0  0
  2  3  2  0  0  0
  2 27  1  0  0  0
 27 28  1  0  0  0
 28 29  2  0  0  0
 29 30  1  0  0  0
 30 31  2  0  0  0
 31 32  1  0  0  0
 32 33  2  0  0  0
 33 34  1  0  0  0
 34 35  2  0  0  0
 35 36  1  0  0  0
 36 37  2  0  0  0
  1 18  1  0  0  0
 18 19  1  0  0  0
 18 20  1  0  0  0
 20 21  2  0  0  0
 21 22  1  0  0  0
 22 23  2  0  0  0
 23 24  1  0  0  0
 24 25  1  0  0  0
 24 26  2  0  0  0
 13 14  1  0  0  0
 14 15  2  0  0  0
 15  6  1  0  0  0
 15 10  1  0  0  0
 37 28  1  0  0  0
 26 20  1  0  0  0
 37 32  1  0  0  0
M  END
> <minimizedAffinity>
-8.33986

> <CNNscore>
0.6563721299

> <CNNaffinity>
6.9174804688

> <CNN_VS>
4.5404415131

> <CNNaffinity_variance>
0.0481178835

$$$$



 37 41  0  0  0  0  0  0  0  0999 V2000
    6.8018   -1.0943   23.2592 N   0  0  0  0  0  0  0  0  0  0  0  0
    5.9771   -0.1884   22.5534 C   0  0  0  0  0  0  0  0  0  0  0  0
    4.7300   -0.2126   22.6890 O   0  0  0  0  0  0  0  0  0  0  0  0
   10.7064   -3.6371   25.4806 C   0  0  0  0  0  0  0  0  0  0  0  0
    9.6435   -4.2268   25.2068 O   0  0  0  0  0  0  0  0  0  0  0  0
   11.1947   -2.4484   24.8775 N   0  0  0  0  0  0  0  0  0  0  0  0
   12.4746   -1.8637   25.2065 C   0  0  0  0  0  0  0  0  0  0  0  0
   13.0636   -1.0502   24.1312 C   0  0  0  0  0  0  0  0  0  0  0  0
   12.5248   -1.2730   22.7501 C   0  0  0  0  0  0  0  0  0  0  0  0
   11.0279   -1.1998   22.7911 C   0  0  0  0  0  0  0  0  0  0  0  0
   10.2473   -0.5837   21.8632 C   0  0  0  0  0  0  0  0  0  0  0  0
    8.8608   -0.5647   22.0263 C   0  0  0  0  0  0  0  0  0  0  0  0
    8.2257   -1.1551   23.1104 C   0  0  0  0  0  0  0  0  0  0  0  0
    9.0283   -1.7784   24.0444 C   0  0  0  0  0  0  0  0  0  0  0  0
   10.3947   -1.8007   23.8906 C   0  0  0  0  0  0  0  0  0  0  0  0
   10.7351   -4.5653   27.7876 C   0  0  0  0  0  0  0  0  0  0  0  0
   11.5396   -4.2476   26.5495 C   0  0  0  0  0  0  0  0  0  0  0  0
    6.1493   -1.9447   24.1782 N   0  0  0  0  0  0  0  0  0  0  0  0
    6.0033   -3.3293   23.7021 C   0  0  0  0  0  0  0  0  0  0  0  0
    5.6511   -1.5702   25.4230 C   0  0  0  0  0  0  0  0  0  0  0  0
    4.6741   -2.2197   26.1269 C   0  0  0  0  0  0  0  0  0  0  0  0
    4.2538   -1.7946   27.3861 C   0  0  0  0  0  0  0  0  0  0  0  0
    4.8242   -0.6841   27.9677 C   0  0  0  0  0  0  0  0  0  0  0  0
    5.8175   -0.0030   27.2774 C   0  0  0  0  0  0  0  0  0  0  0  0
    6.5316    1.4054   28.0294 Cl  0  0  0  0  0  0  0  0  0  0  0  0
    6.2105   -0.4482   26.0360 C   0  0  0  0  0  0  0  0  0  0  0  0
    6.5965    0.8008   21.6469 C   0  0  0  0  0  0  0  0  0  0  0  0
    5.9814    0.7523   20.2909 C   0  0  0  0  0  0  0  0  0  0  0  0
    6.4736   -0.0522   19.2651 C   0  0  0  0  0  0  0  0  0  0  0  0
    5.8789   -0.0496   18.0596 N   0  0  0  0  0  0  0  0  0  0  0  0
    4.8070    0.6999   17.7630 C   0  0  0  0  0  0  0  0  0  0  0  0
    4.3050    1.5065   18.7745 C   0  0  0  0  0  0  0  0  0  0  0  0
    3.2045    2.2915   18.5155 C   0  0  0  0  0  0  0  0  0  0  0  0
    2.6767    3.1020   19.4913 C   0  0  0  0  0  0  0  0  0  0  0  0
    3.2395    3.1477   20.7573 C   0  0  0  0  0  0  0  0  0  0  0  0
    4.3508    2.3433   20.9890 C   0  0  0  0  0  0  0  0  0  0  0  0
    4.8901    1.5284   20.0254 C   0  0  0  0  0  0  0  0  0  0  0  0
 16 17  1  0  0  0
 17  4  1  0  0  0
  4  5  2  0  0  0
  4  6  1  0  0  0
  6  7  1  0  0  0
  7  8  1  0  0  0
  8  9  1  0  0  0
  9 10  1  0  0  0
 10 11  2  0  0  0
 11 12  1  0  0  0
 12 13  2  0  0  0
 13  1  1  0  0  0
  1  2  1  0  0  0
  2  3  2  0  0  0
  2 27  1  0  0  0
 27 28  1  0  0  0
 28 29  2  0  0  0
 29 30  1  0  0  0
 30 31  2  0  0  0
 31 32  1  0  0  0
 32 33  2  0  0  0
 33 34  1  0  0  0
 34 35  2  0  0  0
 35 36  1  0  0  0
 36 37  2  0  0  0
  1 18  1  0  0  0
 18 19  1  0  0  0
 18 20  1  0  0  0
 20 21  2  0  0  0
 21 22  1  0  0  0
 22 23  2  0  0  0
 23 24  1  0  0  0
 24 25  1  0  0  0
 24 26  2  0  0  0
 13 14  1  0  0  0
 14 15  2  0  0  0
 15  6  1  0  0  0
 15 10  1  0  0  0
 37 28  1  0  0  0
 26 20  1  0  0  0
 37 32  1  0  0  0
M  END
> <minimizedAffinity>
-8.71850

> <CNNscore>
0.5904264450

> <CNNaffinity>
7.1581015587

> <CNN_VS>
4.2263326645

> <CNNaffinity_variance>
0.0174698196

$$$$



 37 41  0  0  0  0  0  0  0  0999 V2000
    8.1543   -0.1563   23.2370 N   0  0  0  0  0  0  0  0  0  0  0  0
    9.2762   -0.4864   22.4426 C   0  0  0  0  0  0  0  0  0  0  0  0
    9.7229    0.3202   21.5917 O   0  0  0  0  0  0  0  0  0  0  0  0
    6.1646   -4.9192   23.1840 C   0  0  0  0  0  0  0  0  0  0  0  0
    7.2156   -4.6672   22.5640 O   0  0  0  0  0  0  0  0  0  0  0  0
    5.6369   -4.1955   24.2853 N   0  0  0  0  0  0  0  0  0  0  0  0
    4.4427   -4.5950   24.9941 C   0  0  0  0  0  0  0  0  0  0  0  0
    4.3830   -4.1326   26.3897 C   0  0  0  0  0  0  0  0  0  0  0  0
    5.6804   -3.7147   27.0135 C   0  0  0  0  0  0  0  0  0  0  0  0
    6.3725   -2.7465   26.1017 C   0  0  0  0  0  0  0  0  0  0  0  0
    7.0240   -1.6215   26.5015 C   0  0  0  0  0  0  0  0  0  0  0  0
    7.6111   -0.7855   25.5499 C   0  0  0  0  0  0  0  0  0  0  0  0
    7.5624   -1.0501   24.1880 C   0  0  0  0  0  0  0  0  0  0  0  0
    6.8999   -2.1953   23.7948 C   0  0  0  0  0  0  0  0  0  0  0  0
    6.3187   -3.0233   24.7264 C   0  0  0  0  0  0  0  0  0  0  0  0
    5.6213   -6.3832   21.2484 C   0  0  0  0  0  0  0  0  0  0  0  0
    5.3916   -6.0985   22.7138 C   0  0  0  0  0  0  0  0  0  0  0  0
    7.6412    1.1495   23.0787 N   0  0  0  0  0  0  0  0  0  0  0  0
    8.3949    2.1749   23.8174 C   0  0  0  0  0  0  0  0  0  0  0  0
    6.5235    1.5002   22.3264 C   0  0  0  0  0  0  0  0  0  0  0  0
    5.5446    2.3791   22.7020 C   0  0  0  0  0  0  0  0  0  0  0  0
    4.4713    2.6996   21.8725 C   0  0  0  0  0  0  0  0  0  0  0  0
    4.3660    2.1268   20.6244 C   0  0  0  0  0  0  0  0  0  0  0  0
    5.3434    1.2300   20.2152 C   0  0  0  0  0  0  0  0  0  0  0  0
    5.1951    0.5109   18.6279 Cl  0  0  0  0  0  0  0  0  0  0  0  0
    6.3908    0.9345   21.0575 C   0  0  0  0  0  0  0  0  0  0  0  0
    9.9307   -1.7993   22.6222 C   0  0  0  0  0  0  0  0  0  0  0  0
   11.0537   -1.7157   23.5975 C   0  0  0  0  0  0  0  0  0  0  0  0
   12.1144   -0.8234   23.4553 C   0  0  0  0  0  0  0  0  0  0  0  0
   13.1029   -0.7977   24.3659 N   0  0  0  0  0  0  0  0  0  0  0  0
   13.1423   -1.5993   25.4405 C   0  0  0  0  0  0  0  0  0  0  0  0
   12.0926   -2.4936   25.5960 C   0  0  0  0  0  0  0  0  0  0  0  0
   12.0907   -3.3347   26.6855 C   0  0  0  0  0  0  0  0  0  0  0  0
   11.0682   -4.2325   26.8758 C   0  0  0  0  0  0  0  0  0  0  0  0
   10.0165   -4.3119   25.9761 C   0  0  0  0  0  0  0  0  0  0  0  0
   10.0462   -3.4492   24.8849 C   0  0  0  0  0  0  0  0  0  0  0  0
   11.0598   -2.5468   24.6804 C   0  0  0  0  0  0  0  0  0  0  0  0
 16 17  1  0  0  0
 17  4  1  0  0  0
  4  5  2  0  0  0
  4  6  1  0  0  0
  6  7  1  0  0  0
  7  8  1  0  0  0
  8  9  1  0  0  0
  9 10  1  0  0  0
 10 11  2  0  0  0
 11 12  1  0  0  0
 12 13  2  0  0  0
 13  1  1  0  0  0
  1  2  1  0  0  0
  2  3  2  0  0  0
  2 27  1  0  0  0
 27 28  1  0  0  0
 28 29  2  0  0  0
 29 30  1  0  0  0
 30 31  2  0  0  0
 31 32  1  0  0  0
 32 33  2  0  0  0
 33 34  1  0  0  0
 34 35  2  0  0  0
 35 36  1  0  0  0
 36 37  2  0  0  0
  1 18  1  0  0  0
 18 19  1  0  0  0
 18 20  1  0  0  0
 20 21  2  0  0  0
 21 22  1  0  0  0
 22 23  2  0  0  0
 23 24  1  0  0  0
 24 25  1  0  0  0
 24 26  2  0  0  0
 13 14  1  0  0  0
 14 15  2  0  0  0
 15  6  1  0  0  0
 15 10  1  0  0  0
 37 28  1  0  0  0
 26 20  1  0  0  0
 37 32  1  0  0  0
M  END
> <minimizedAffinity>
-8.31602

> <CNNscore>
0.4611812234

> <CNNaffinity>
7.1698212624

> <CNN_VS>
3.3065869808

> <CNNaffinity_variance>
0.1868706793

$$$$



 37 41  0  0  0  0  0  0  0  0999 V2000
    7.6619   -1.9954   23.0026 N   0  0  0  0  0  0  0  0  0  0  0  0
    7.2724   -0.6818   22.6540 C   0  0  0  0  0  0  0  0  0  0  0  0
    8.1159    0.2447   22.5896 O   0  0  0  0  0  0  0  0  0  0  0  0
    4.1885   -3.5499   26.4906 C   0  0  0  0  0  0  0  0  0  0  0  0
    4.2758   -2.3465   26.1795 O   0  0  0  0  0  0  0  0  0  0  0  0
    4.6076   -4.6588   25.7097 N   0  0  0  0  0  0  0  0  0  0  0  0
    4.4080   -6.0313   26.1153 C   0  0  0  0  0  0  0  0  0  0  0  0
    4.3380   -6.9887   25.0002 C   0  0  0  0  0  0  0  0  0  0  0  0
    4.0473   -6.4188   23.6445 C   0  0  0  0  0  0  0  0  0  0  0  0
    4.9835   -5.2774   23.3824 C   0  0  0  0  0  0  0  0  0  0  0  0
    5.6060   -5.0299   22.1988 C   0  0  0  0  0  0  0  0  0  0  0  0
    6.4760   -3.9437   22.0871 C   0  0  0  0  0  0  0  0  0  0  0  0
    6.7432   -3.0859   23.1455 C   0  0  0  0  0  0  0  0  0  0  0  0
    6.1044   -3.3465   24.3409 C   0  0  0  0  0  0  0  0  0  0  0  0
    5.2465   -4.4148   24.4584 C   0  0  0  0  0  0  0  0  0  0  0  0
    4.5701   -3.6586   28.9456 C   0  0  0  0  0  0  0  0  0  0  0  0
    3.5841   -3.8432   27.8165 C   0  0  0  0  0  0  0  0  0  0  0  0
    9.0467   -2.2093   23.1760 N   0  0  0  0  0  0  0  0  0  0  0  0
    9.8371   -1.9870   21.9550 C   0  0  0  0  0  0  0  0  0  0  0  0
    9.6679   -2.6104   24.3556 C   0  0  0  0  0  0  0  0  0  0  0  0
    9.1011   -3.3633   25.3474 C   0  0  0  0  0  0  0  0  0  0  0  0
    9.8058   -3.7492   26.4864 C   0  0  0  0  0  0  0  0  0  0  0  0
   11.1212   -3.3739   26.6467 C   0  0  0  0  0  0  0  0  0  0  0  0
   11.7238   -2.6084   25.6578 C   0  0  0  0  0  0  0  0  0  0  0  0
   13.3945   -2.1395   25.8765 Cl  0  0  0  0  0  0  0  0  0  0  0  0
   11.0011   -2.2438   24.5450 C   0  0  0  0  0  0  0  0  0  0  0  0
    5.8516   -0.4010   22.3592 C   0  0  0  0  0  0  0  0  0  0  0  0
    5.6445   -0.1193   20.9111 C   0  0  0  0  0  0  0  0  0  0  0  0
    6.3870   -0.7365   19.9064 C   0  0  0  0  0  0  0  0  0  0  0  0
    6.1582   -0.4375   18.6161 N   0  0  0  0  0  0  0  0  0  0  0  0
    5.2327    0.4452   18.2122 C   0  0  0  0  0  0  0  0  0  0  0  0
    4.4849    1.0683   19.2013 C   0  0  0  0  0  0  0  0  0  0  0  0
    3.5222    1.9803   18.8327 C   0  0  0  0  0  0  0  0  0  0  0  0
    2.7598    2.6167   19.7821 C   0  0  0  0  0  0  0  0  0  0  0  0
    2.9421    2.3551   21.1312 C   0  0  0  0  0  0  0  0  0  0  0  0
    3.9224    1.4288   21.4729 C   0  0  0  0  0  0  0  0  0  0  0  0
    4.6923    0.7846   20.5370 C   0  0  0  0  0  0  0  0  0  0  0  0
 16 17  1  0  0  0
 17  4  1  0  0  0
  4  5  2  0  0  0
  4  6  1  0  0  0
  6  7  1  0  0  0
  7  8  1  0  0  0
  8  9  1  0  0  0
  9 10  1  0  0  0
 10 11  2  0  0  0
 11 12  1  0  0  0
 12 13  2  0  0  0
 13  1  1  0  0  0
  1  2  1  0  0  0
  2  3  2  0  0  0
  2 27  1  0  0  0
 27 28  1  0  0  0
 28 29  2  0  0  0
 29 30  1  0  0  0
 30 31  2  0  0  0
 31 32  1  0  0  0
 32 33  2  0  0  0
 33 34  1  0  0  0
 34 35  2  0  0  0
 35 36  1  0  0  0
 36 37  2  0  0  0
  1 18  1  0  0  0
 18 19  1  0  0  0
 18 20  1  0  0  0
 20 21  2  0  0  0
 21 22  1  0  0  0
 22 23  2  0  0  0
 23 24  1  0  0  0
 24 25  1  0  0  0
 24 26  2  0  0  0
 13 14  1  0  0  0
 14 15  2  0  0  0
 15  6  1  0  0  0
 15 10  1  0  0  0
 37 28  1  0  0  0
 26 20  1  0  0  0
 37 32  1  0  0  0
M  END
> <minimizedAffinity>
-7.89595

> <CNNscore>
0.4453093410

> <CNNaffinity>
6.9091811180

> <CNN_VS>
3.0767228603

> <CNNaffinity_variance>
0.1563609540

$$$$



 37 41  0  0  0  0  0  0  0  0999 V2000
    9.1297   -0.6183   23.8109 N   0  0  0  0  0  0  0  0  0  0  0  0
    8.8073   -1.3093   22.6204 C   0  0  0  0  0  0  0  0  0  0  0  0
    9.7008   -1.6334   21.8014 O   0  0  0  0  0  0  0  0  0  0  0  0
    6.3194   -2.7404   27.5852 C   0  0  0  0  0  0  0  0  0  0  0  0
    7.5207   -3.0408   27.4475 O   0  0  0  0  0  0  0  0  0  0  0  0
    5.6852   -1.5552   27.1288 N   0  0  0  0  0  0  0  0  0  0  0  0
    4.2968   -1.2513   27.3897 C   0  0  0  0  0  0  0  0  0  0  0  0
    3.9808    0.1857   27.3907 C   0  0  0  0  0  0  0  0  0  0  0  0
    5.1360    1.1261   27.5594 C   0  0  0  0  0  0  0  0  0  0  0  0
    6.2115    0.7606   26.5810 C   0  0  0  0  0  0  0  0  0  0  0  0
    6.9501    1.6467   25.8604 C   0  0  0  0  0  0  0  0  0  0  0  0
    7.9102    1.1790   24.9611 C   0  0  0  0  0  0  0  0  0  0  0  0
    8.1539   -0.1731   24.7612 C   0  0  0  0  0  0  0  0  0  0  0  0
    7.3992   -1.0623   25.4993 C   0  0  0  0  0  0  0  0  0  0  0  0
    6.4515   -0.6089   26.3865 C   0  0  0  0  0  0  0  0  0  0  0  0
    4.8550   -4.7377   27.3586 C   0  0  0  0  0  0  0  0  0  0  0  0
    5.4726   -3.7311   28.3001 C   0  0  0  0  0  0  0  0  0  0  0  0
   10.5040   -0.4069   24.0559 N   0  0  0  0  0  0  0  0  0  0  0  0
   11.0328    0.8203   23.4400 C   0  0  0  0  0  0  0  0  0  0  0  0
   11.3404   -1.2475   24.7852 C   0  0  0  0  0  0  0  0  0  0  0  0
   12.6953   -1.1143   24.9202 C   0  0  0  0  0  0  0  0  0  0  0  0
   13.4569   -1.9851   25.6978 C   0  0  0  0  0  0  0  0  0  0  0  0
   12.8512   -3.0262   26.3658 C   0  0  0  0  0  0  0  0  0  0  0  0
   11.4776   -3.1881   26.2474 C   0  0  0  0  0  0  0  0  0  0  0  0
   10.7237   -4.5151   27.1015 Cl  0  0  0  0  0  0  0  0  0  0  0  0
   10.7538   -2.3113   25.4722 C   0  0  0  0  0  0  0  0  0  0  0  0
    7.3977   -1.6553   22.3420 C   0  0  0  0  0  0  0  0  0  0  0  0
    6.7692   -0.6671   21.4212 C   0  0  0  0  0  0  0  0  0  0  0  0
    7.2727   -0.3889   20.1520 C   0  0  0  0  0  0  0  0  0  0  0  0
    6.6649    0.5178   19.3676 N   0  0  0  0  0  0  0  0  0  0  0  0
    5.5688    1.1989   19.7331 C   0  0  0  0  0  0  0  0  0  0  0  0
    5.0554    0.9326   20.9946 C   0  0  0  0  0  0  0  0  0  0  0  0
    3.9302    1.6071   21.4111 C   0  0  0  0  0  0  0  0  0  0  0  0
    3.3903    1.3700   22.6521 C   0  0  0  0  0  0  0  0  0  0  0  0
    3.9655    0.4473   23.5120 C   0  0  0  0  0  0  0  0  0  0  0  0
    5.1018   -0.2185   23.0632 C   0  0  0  0  0  0  0  0  0  0  0  0
    5.6534    0.0067   21.8269 C   0  0  0  0  0  0  0  0  0  0  0  0
 16 17  1  0  0  0
 17  4  1  0  0  0
  4  5  2  0  0  0
  4  6  1  0  0  0
  6  7  1  0  0  0
  7  8  1  0  0  0
  8  9  1  0  0  0
  9 10  1  0  0  0
 10 11  2  0  0  0
 11 12  1  0  0  0
 12 13  2  0  0  0
 13  1  1  0  0  0
  1  2  1  0  0  0
  2  3  2  0  0  0
  2 27  1  0  0  0
 27 28  1  0  0  0
 28 29  2  0  0  0
 29 30  1  0  0  0
 30 31  2  0  0  0
 31 32  1  0  0  0
 32 33  2  0  0  0
 33 34  1  0  0  0
 34 35  2  0  0  0
 35 36  1  0  0  0
 36 37  2  0  0  0
  1 18  1  0  0  0
 18 19  1  0  0  0
 18 20  1  0  0  0
 20 21  2  0  0  0
 21 22  1  0  0  0
 22 23  2  0  0  0
 23 24  1  0  0  0
 24 25  1  0  0  0
 24 26  2  0  0  0
 13 14  1  0  0  0
 14 15  2  0  0  0
 15  6  1  0  0  0
 15 10  1  0  0  0
 37 28  1  0  0  0
 26 20  1  0  0  0
 37 32  1  0  0  0
M  END
> <minimizedAffinity>
-7.70570

> <CNNscore>
0.3947743773

> <CNNaffinity>
6.7140417099

> <CNN_VS>
2.6505315304

> <CNNaffinity_variance>
0.2321057022

$$$$



 37 41  0  0  0  0  0  0  0  0999 V2000
    8.1668   -0.4183   23.4447 N   0  0  0  0  0  0  0  0  0  0  0  0
    7.6337   -0.2558   22.1454 C   0  0  0  0  0  0  0  0  0  0  0  0
    8.1950    0.4902   21.3073 O   0  0  0  0  0  0  0  0  0  0  0  0
    4.6691    0.3131   27.1701 C   0  0  0  0  0  0  0  0  0  0  0  0
    4.4964    0.8020   26.0371 O   0  0  0  0  0  0  0  0  0  0  0  0
    5.4846   -0.8024   27.4955 N   0  0  0  0  0  0  0  0  0  0  0  0
    5.5778   -1.3506   28.8292 C   0  0  0  0  0  0  0  0  0  0  0  0
    5.9455   -2.7746   28.8748 C   0  0  0  0  0  0  0  0  0  0  0  0
    5.7525   -3.5577   27.6111 C   0  0  0  0  0  0  0  0  0  0  0  0
    6.3951   -2.8198   26.4752 C   0  0  0  0  0  0  0  0  0  0  0  0
    7.1247   -3.3932   25.4807 C   0  0  0  0  0  0  0  0  0  0  0  0
    7.6930   -2.5924   24.4882 C   0  0  0  0  0  0  0  0  0  0  0  0
    7.5480   -1.2119   24.4649 C   0  0  0  0  0  0  0  0  0  0  0  0
    6.8044   -0.6421   25.4784 C   0  0  0  0  0  0  0  0  0  0  0  0
    6.2420   -1.4244   26.4596 C   0  0  0  0  0  0  0  0  0  0  0  0
    4.6516    2.2180   28.7687 C   0  0  0  0  0  0  0  0  0  0  0  0
    3.9446    0.9731   28.2876 C   0  0  0  0  0  0  0  0  0  0  0  0
    9.3974    0.2259   23.6983 N   0  0  0  0  0  0  0  0  0  0  0  0
    9.2756    1.6795   23.8913 C   0  0  0  0  0  0  0  0  0  0  0  0
   10.6438   -0.3916   23.7553 C   0  0  0  0  0  0  0  0  0  0  0  0
   11.3098   -0.7559   24.8935 C   0  0  0  0  0  0  0  0  0  0  0  0
   12.5449   -1.4010   24.8614 C   0  0  0  0  0  0  0  0  0  0  0  0
   13.1409   -1.6952   23.6551 C   0  0  0  0  0  0  0  0  0  0  0  0
   12.4901   -1.3370   22.4823 C   0  0  0  0  0  0  0  0  0  0  0  0
   13.2601   -1.7172   20.9588 Cl  0  0  0  0  0  0  0  0  0  0  0  0
   11.2714   -0.7013   22.5478 C   0  0  0  0  0  0  0  0  0  0  0  0
    6.3998   -0.9788   21.7725 C   0  0  0  0  0  0  0  0  0  0  0  0
    5.2527   -0.0427   21.6073 C   0  0  0  0  0  0  0  0  0  0  0  0
    4.4630    0.3819   22.6739 C   0  0  0  0  0  0  0  0  0  0  0  0
    3.4369    1.2240   22.4620 N   0  0  0  0  0  0  0  0  0  0  0  0
    3.1070    1.7016   21.2530 C   0  0  0  0  0  0  0  0  0  0  0  0
    3.8845    1.2879   20.1805 C   0  0  0  0  0  0  0  0  0  0  0  0
    3.5833    1.7544   18.9211 C   0  0  0  0  0  0  0  0  0  0  0  0
    4.3305    1.3697   17.8342 C   0  0  0  0  0  0  0  0  0  0  0  0
    5.4034    0.5041   17.9807 C   0  0  0  0  0  0  0  0  0  0  0  0
    5.6832    0.0495   19.2655 C   0  0  0  0  0  0  0  0  0  0  0  0
    4.9469    0.4241   20.3614 C   0  0  0  0  0  0  0  0  0  0  0  0
 16 17  1  0  0  0
 17  4  1  0  0  0
  4  5  2  0  0  0
  4  6  1  0  0  0
  6  7  1  0  0  0
  7  8  1  0  0  0
  8  9  1  0  0  0
  9 10  1  0  0  0
 10 11  2  0  0  0
 11 12  1  0  0  0
 12 13  2  0  0  0
 13  1  1  0  0  0
  1  2  1  0  0  0
  2  3  2  0  0  0
  2 27  1  0  0  0
 27 28  1  0  0  0
 28 29  2  0  0  0
 29 30  1  0  0  0
 30 31  2  0  0  0
 31 32  1  0  0  0
 32 33  2  0  0  0
 33 34  1  0  0  0
 34 35  2  0  0  0
 35 36  1  0  0  0
 36 37  2  0  0  0
  1 18  1  0  0  0
 18 19  1  0  0  0
 18 20  1  0  0  0
 20 21  2  0  0  0
 21 22  1  0  0  0
 22 23  2  0  0  0
 23 24  1  0  0  0
 24 25  1  0  0  0
 24 26  2  0  0  0
 13 14  1  0  0  0
 14 15  2  0  0  0
 15  6  1  0  0  0
 15 10  1  0  0  0
 37 28  1  0  0  0
 26 20  1  0  0  0
 37 32  1  0  0  0
M  END
> <minimizedAffinity>
-7.51544

> <CNNscore>
0.3634776175

> <CNNaffinity>
6.7610001564

> <CNN_VS>
2.4574723244

> <CNNaffinity_variance>
0.1230178252

$$$$



 37 41  0  0  0  0  0  0  0  0999 V2000
    7.4391    0.1337   23.0628 N   0  0  0  0  0  0  0  0  0  0  0  0
    7.3215   -0.4618   21.7860 C   0  0  0  0  0  0  0  0  0  0  0  0
    8.3265   -0.6123   21.0501 O   0  0  0  0  0  0  0  0  0  0  0  0
    5.1883   -2.2307   27.0616 C   0  0  0  0  0  0  0  0  0  0  0  0
    6.4303   -2.1699   26.9816 O   0  0  0  0  0  0  0  0  0  0  0  0
    4.2561   -1.3614   26.4367 N   0  0  0  0  0  0  0  0  0  0  0  0
    2.8282   -1.4594   26.6358 C   0  0  0  0  0  0  0  0  0  0  0  0
    2.1000   -0.1971   26.4327 C   0  0  0  0  0  0  0  0  0  0  0  0
    2.9129    1.0614   26.4828 C   0  0  0  0  0  0  0  0  0  0  0  0
    4.0992    0.9141   25.5780 C   0  0  0  0  0  0  0  0  0  0  0  0
    4.5786    1.8808   24.7500 C   0  0  0  0  0  0  0  0  0  0  0  0
    5.6810    1.6123   23.9364 C   0  0  0  0  0  0  0  0  0  0  0  0
    6.3257    0.3828   23.9299 C   0  0  0  0  0  0  0  0  0  0  0  0
    5.8309   -0.5894   24.7754 C   0  0  0  0  0  0  0  0  0  0  0  0
    4.7452   -0.3324   25.5792 C   0  0  0  0  0  0  0  0  0  0  0  0
    5.6058   -3.7722   28.9679 C   0  0  0  0  0  0  0  0  0  0  0  0
    4.6371   -3.3296   27.8971 C   0  0  0  0  0  0  0  0  0  0  0  0
    8.7486    0.4531   23.4830 N   0  0  0  0  0  0  0  0  0  0  0  0
    9.1559    1.8287   23.1563 C   0  0  0  0  0  0  0  0  0  0  0  0
    9.6290   -0.4083   24.1320 C   0  0  0  0  0  0  0  0  0  0  0  0
    9.4073   -1.0336   25.3284 C   0  0  0  0  0  0  0  0  0  0  0  0
   10.3320   -1.9088   25.8956 C   0  0  0  0  0  0  0  0  0  0  0  0
   11.5203   -2.1729   25.2515 C   0  0  0  0  0  0  0  0  0  0  0  0
   11.7748   -1.5525   24.0360 C   0  0  0  0  0  0  0  0  0  0  0  0
   13.2885   -1.8979   23.2309 Cl  0  0  0  0  0  0  0  0  0  0  0  0
   10.8414   -0.6936   23.5023 C   0  0  0  0  0  0  0  0  0  0  0  0
    5.9952   -0.9146   21.3166 C   0  0  0  0  0  0  0  0  0  0  0  0
    5.6179   -0.2507   20.0374 C   0  0  0  0  0  0  0  0  0  0  0  0
    6.2631   -0.5119   18.8303 C   0  0  0  0  0  0  0  0  0  0  0  0
    5.8814    0.1229   17.7086 N   0  0  0  0  0  0  0  0  0  0  0  0
    4.8878    1.0228   17.6673 C   0  0  0  0  0  0  0  0  0  0  0  0
    4.2353    1.2935   18.8618 C   0  0  0  0  0  0  0  0  0  0  0  0
    3.2078    2.2093   18.8661 C   0  0  0  0  0  0  0  0  0  0  0  0
    2.5359    2.5030   20.0280 C   0  0  0  0  0  0  0  0  0  0  0  0
    2.8769    1.8847   21.2210 C   0  0  0  0  0  0  0  0  0  0  0  0
    3.9193    0.9639   21.1851 C   0  0  0  0  0  0  0  0  0  0  0  0
    4.6004    0.6594   20.0332 C   0  0  0  0  0  0  0  0  0  0  0  0
 16 17  1  0  0  0
 17  4  1  0  0  0
  4  5  2  0  0  0
  4  6  1  0  0  0
  6  7  1  0  0  0
  7  8  1  0  0  0
  8  9  1  0  0  0
  9 10  1  0  0  0
 10 11  2  0  0  0
 11 12  1  0  0  0
 12 13  2  0  0  0
 13  1  1  0  0  0
  1  2  1  0  0  0
  2  3  2  0  0  0
  2 27  1  0  0  0
 27 28  1  0  0  0
 28 29  2  0  0  0
 29 30  1  0  0  0
 30 31  2  0  0  0
 31 32  1  0  0  0
 32 33  2  0  0  0
 33 34  1  0  0  0
 34 35  2  0  0  0
 35 36  1  0  0  0
 36 37  2  0  0  0
  1 18  1  0  0  0
 18 19  1  0  0  0
 18 20  1  0  0  0
 20 21  2  0  0  0
 21 22  1  0  0  0
 22 23  2  0  0  0
 23 24  1  0  0  0
 24 25  1  0  0  0
 24 26  2  0  0  0
 13 14  1  0  0  0
 14 15  2  0  0  0
 15  6  1  0  0  0
 15 10  1  0  0  0
 37 28  1  0  0  0
 26 20  1  0  0  0
 37 32  1  0  0  0
M  END
> <minimizedAffinity>
-7.74920

> <CNNscore>
0.3615541756

> <CNNaffinity>
6.7154030800

> <CNN_VS>
2.4279820919

> <CNNaffinity_variance>
0.1124037877

$$$$
