


 33 36  0  0  0  0  0  0  0  0999 V2000
    6.7884   -1.5208   23.6901 N   0  0  0  0  0  0  0  0  0  0  0  0
    5.9137   -0.6018   23.0729 C   0  0  0  0  0  0  0  0  0  0  0  0
    4.6954   -0.5490   23.3497 O   0  0  0  0  0  0  0  0  0  0  0  0
   10.8802   -1.0922   23.4449 C   0  0  0  0  0  0  0  0  0  0  0  0
   10.1668   -0.7270   24.5557 C   0  0  0  0  0  0  0  0  0  0  0  0
    8.8445   -1.0025   24.5801 C   0  0  0  0  0  0  0  0  0  0  0  0
    8.1901   -1.6223   23.4626 C   0  0  0  0  0  0  0  0  0  0  0  0
    8.8892   -1.9947   22.3705 C   0  0  0  0  0  0  0  0  0  0  0  0
   10.2816   -1.7288   22.3878 C   0  0  0  0  0  0  0  0  0  0  0  0
   12.9480   -1.7405   22.4503 C   0  0  0  0  0  0  0  0  0  0  0  0
   12.3399   -0.7742   23.4417 C   0  0  0  0  0  0  0  0  0  0  0  0
   12.9025   -1.0448   24.8024 C   0  0  0  0  0  0  0  0  0  0  0  0
   12.5134    0.6206   23.0451 C   0  0  0  0  0  0  0  0  0  0  0  0
   12.6356    1.6883   22.7247 N   0  0  0  0  0  0  0  0  0  0  0  0
    6.3148   -2.6364   24.4763 C   0  0  0  0  0  0  0  0  0  0  0  0
    6.5623   -3.9788   24.0785 C   0  0  0  0  0  0  0  0  0  0  0  0
    7.4339   -4.8351   24.7012 C   0  0  0  0  0  0  0  0  0  0  0  0
    7.7068   -6.1043   24.2306 C   0  0  0  0  0  0  0  0  0  0  0  0
    7.0796   -6.4951   23.0620 C   0  0  0  0  0  0  0  0  0  0  0  0
    6.2024   -5.6505   22.3871 C   0  0  0  0  0  0  0  0  0  0  0  0
    5.5745   -6.1218   20.7966 Cl  0  0  0  0  0  0  0  0  0  0  0  0
    5.9394   -4.4055   22.8953 C   0  0  0  0  0  0  0  0  0  0  0  0
    6.4689    0.3109   22.0738 C   0  0  0  0  0  0  0  0  0  0  0  0
    5.9643    0.3349   20.7068 C   0  0  0  0  0  0  0  0  0  0  0  0
    6.5682   -0.4771   19.7843 C   0  0  0  0  0  0  0  0  0  0  0  0
    6.2590   -0.4601   18.4770 N   0  0  0  0  0  0  0  0  0  0  0  0
    5.2918    0.3844   18.0386 C   0  0  0  0  0  0  0  0  0  0  0  0
    4.6457    1.1994   18.9668 C   0  0  0  0  0  0  0  0  0  0  0  0
    3.5872    1.9833   18.4979 C   0  0  0  0  0  0  0  0  0  0  0  0
    2.8597    2.7600   19.3631 C   0  0  0  0  0  0  0  0  0  0  0  0
    3.2095    2.7338   20.7129 C   0  0  0  0  0  0  0  0  0  0  0  0
    4.2488    1.9547   21.1693 C   0  0  0  0  0  0  0  0  0  0  0  0
    4.9840    1.1795   20.2896 C   0  0  0  0  0  0  0  0  0  0  0  0
 10 11  1  0  0  0
 11 12  1  0  0  0
 11 13  1  0  0  0
 13 14  3  0  0  0
 11  4  1  0  0  0
  4  5  2  0  0  0
  5  6  1  0  0  0
  6  7  2  0  0  0
  7  1  1  0  0  0
  1 15  1  0  0  0
 15 16  1  0  0  0
 16 17  2  0  0  0
 17 18  1  0  0  0
 18 19  2  0  0  0
 19 20  1  0  0  0
 20 21  1  0  0  0
 20 22  2  0  0  0
  1  2  1  0  0  0
  2  3  2  0  0  0
  2 23  1  0  0  0
 23 24  1  0  0  0
 24 25  2  0  0  0
 25 26  1  0  0  0
 26 27  2  0  0  0
 27 28  1  0  0  0
 28 29  2  0  0  0
 29 30  1  0  0  0
 30 31  2  0  0  0
 31 32  1  0  0  0
 32 33  2  0  0  0
  7  8  1  0  0  0
  8  9  2  0  0  0
  9  4  1  0  0  0
 22 16  1  0  0  0
 33 24  1  0  0  0
 33 28  1  0  0  0
M  END
> <minimizedAffinity>
-7.91037

> <CNNscore>
0.7301700711

> <CNNaffinity>
7.2141828537

> <CNN_VS>
5.2675805092

> <CNNaffinity_variance>
0.0703812614

$$$$



 33 36  0  0  0  0  0  0  0  0999 V2000
    7.0525   -1.4272   22.9158 N   0  0  0  0  0  0  0  0  0  0  0  0
    5.9580   -0.8321   22.2535 C   0  0  0  0  0  0  0  0  0  0  0  0
    4.8119   -1.3316   22.2747 O   0  0  0  0  0  0  0  0  0  0  0  0
   11.1078   -0.6934   22.8604 C   0  0  0  0  0  0  0  0  0  0  0  0
   10.4947   -1.5098   21.9474 C   0  0  0  0  0  0  0  0  0  0  0  0
    9.1477   -1.6054   21.9847 C   0  0  0  0  0  0  0  0  0  0  0  0
    8.3767   -0.9075   22.9745 C   0  0  0  0  0  0  0  0  0  0  0  0
    8.9735   -0.0930   23.8691 C   0  0  0  0  0  0  0  0  0  0  0  0
   10.3842    0.0189   23.7824 C   0  0  0  0  0  0  0  0  0  0  0  0
   13.0786   -1.2399   24.0863 C   0  0  0  0  0  0  0  0  0  0  0  0
   12.5980   -0.6071   22.7998 C   0  0  0  0  0  0  0  0  0  0  0  0
   13.0041    0.8338   22.7774 C   0  0  0  0  0  0  0  0  0  0  0  0
   13.0598   -1.3244   21.6143 C   0  0  0  0  0  0  0  0  0  0  0  0
   13.4040   -1.8909   20.7098 N   0  0  0  0  0  0  0  0  0  0  0  0
    7.0072   -2.7743   23.4354 C   0  0  0  0  0  0  0  0  0  0  0  0
    7.4771   -3.0784   24.7425 C   0  0  0  0  0  0  0  0  0  0  0  0
    6.8388   -2.7352   25.9067 C   0  0  0  0  0  0  0  0  0  0  0  0
    7.3731   -2.9768   27.1569 C   0  0  0  0  0  0  0  0  0  0  0  0
    8.6215   -3.5689   27.2087 C   0  0  0  0  0  0  0  0  0  0  0  0
    9.3130   -3.9161   26.0512 C   0  0  0  0  0  0  0  0  0  0  0  0
   10.9862   -4.4936   26.1646 Cl  0  0  0  0  0  0  0  0  0  0  0  0
    8.7421   -3.6803   24.8280 C   0  0  0  0  0  0  0  0  0  0  0  0
    6.1924    0.4105   21.5183 C   0  0  0  0  0  0  0  0  0  0  0  0
    5.5591    0.6587   20.2295 C   0  0  0  0  0  0  0  0  0  0  0  0
    6.1787    0.1803   19.1060 C   0  0  0  0  0  0  0  0  0  0  0  0
    5.7448    0.4395   17.8613 N   0  0  0  0  0  0  0  0  0  0  0  0
    4.6304    1.1955   17.6950 C   0  0  0  0  0  0  0  0  0  0  0  0
    3.9694    1.6688   18.8274 C   0  0  0  0  0  0  0  0  0  0  0  0
    2.7706    2.3587   18.6229 C   0  0  0  0  0  0  0  0  0  0  0  0
    2.0286    2.7963   19.6902 C   0  0  0  0  0  0  0  0  0  0  0  0
    2.5080    2.5252   20.9714 C   0  0  0  0  0  0  0  0  0  0  0  0
    3.6859    1.8396   21.1661 C   0  0  0  0  0  0  0  0  0  0  0  0
    4.4340    1.4079   20.0847 C   0  0  0  0  0  0  0  0  0  0  0  0
 10 11  1  0  0  0
 11 12  1  0  0  0
 11 13  1  0  0  0
 13 14  3  0  0  0
 11  4  1  0  0  0
  4  5  2  0  0  0
  5  6  1  0  0  0
  6  7  2  0  0  0
  7  1  1  0  0  0
  1 15  1  0  0  0
 15 16  1  0  0  0
 16 17  2  0  0  0
 17 18  1  0  0  0
 18 19  2  0  0  0
 19 20  1  0  0  0
 20 21  1  0  0  0
 20 22  2  0  0  0
  1  2  1  0  0  0
  2  3  2  0  0  0
  2 23  1  0  0  0
 23 24  1  0  0  0
 24 25  2  0  0  0
 25 26  1  0  0  0
 26 27  2  0  0  0
 27 28  1  0  0  0
 28 29  2  0  0  0
 29 30  1  0  0  0
 30 31  2  0  0  0
 31 32  1  0  0  0
 32 33  2  0  0  0
  7  8  1  0  0  0
  8  9  2  0  0  0
  9  4  1  0  0  0
 22 16  1  0  0  0
 33 24  1  0  0  0
 33 28  1  0  0  0
M  END
> <minimizedAffinity>
-7.55528

> <CNNscore>
0.7241393328

> <CNNaffinity>
7.0662026405

> <CNN_VS>
5.1169152260

> <CNNaffinity_variance>
0.0643891245

$$$$



 33 36  0  0  0  0  0  0  0  0999 V2000
    7.8282   -0.6205   22.8928 N   0  0  0  0  0  0  0  0  0  0  0  0
    7.5628   -0.1361   21.5945 C   0  0  0  0  0  0  0  0  0  0  0  0
    8.1714    0.8423   21.1087 O   0  0  0  0  0  0  0  0  0  0  0  0
    6.2134   -4.2629   23.9475 C   0  0  0  0  0  0  0  0  0  0  0  0
    7.3488   -4.1525   23.1893 C   0  0  0  0  0  0  0  0  0  0  0  0
    7.8577   -2.9182   22.9838 C   0  0  0  0  0  0  0  0  0  0  0  0
    7.2115   -1.7476   23.5063 C   0  0  0  0  0  0  0  0  0  0  0  0
    6.0996   -1.8504   24.2634 C   0  0  0  0  0  0  0  0  0  0  0  0
    5.6093   -3.1602   24.4955 C   0  0  0  0  0  0  0  0  0  0  0  0
    6.8683   -6.5535   24.0482 C   0  0  0  0  0  0  0  0  0  0  0  0
    5.6695   -5.6383   24.1578 C   0  0  0  0  0  0  0  0  0  0  0  0
    4.7045   -5.9562   23.0582 C   0  0  0  0  0  0  0  0  0  0  0  0
    5.0381   -5.6950   25.4735 C   0  0  0  0  0  0  0  0  0  0  0  0
    4.5433   -5.7221   26.4795 N   0  0  0  0  0  0  0  0  0  0  0  0
    8.6130    0.1202   23.8532 C   0  0  0  0  0  0  0  0  0  0  0  0
   10.0099   -0.1036   23.9958 C   0  0  0  0  0  0  0  0  0  0  0  0
   10.9779    0.4264   23.1819 C   0  0  0  0  0  0  0  0  0  0  0  0
   12.3176    0.1151   23.3051 C   0  0  0  0  0  0  0  0  0  0  0  0
   12.6689   -0.7953   24.2848 C   0  0  0  0  0  0  0  0  0  0  0  0
   11.7163   -1.3721   25.1203 C   0  0  0  0  0  0  0  0  0  0  0  0
   12.1891   -2.6738   26.2284 Cl  0  0  0  0  0  0  0  0  0  0  0  0
   10.3983   -1.0231   24.9825 C   0  0  0  0  0  0  0  0  0  0  0  0
    6.5337   -0.8125   20.8054 C   0  0  0  0  0  0  0  0  0  0  0  0
    5.8033   -0.1140   19.7555 C   0  0  0  0  0  0  0  0  0  0  0  0
    6.2423   -0.2522   18.4659 C   0  0  0  0  0  0  0  0  0  0  0  0
    5.7146    0.4268   17.4338 N   0  0  0  0  0  0  0  0  0  0  0  0
    4.6853    1.2807   17.6628 C   0  0  0  0  0  0  0  0  0  0  0  0
    4.2057    1.4144   18.9649 C   0  0  0  0  0  0  0  0  0  0  0  0
    3.0813    2.2248   19.1491 C   0  0  0  0  0  0  0  0  0  0  0  0
    2.5108    2.3521   20.3898 C   0  0  0  0  0  0  0  0  0  0  0  0
    3.0857    1.6465   21.4464 C   0  0  0  0  0  0  0  0  0  0  0  0
    4.1890    0.8450   21.2571 C   0  0  0  0  0  0  0  0  0  0  0  0
    4.7648    0.7273   20.0041 C   0  0  0  0  0  0  0  0  0  0  0  0
 10 11  1  0  0  0
 11 12  1  0  0  0
 11 13  1  0  0  0
 13 14  3  0  0  0
 11  4  1  0  0  0
  4  5  2  0  0  0
  5  6  1  0  0  0
  6  7  2  0  0  0
  7  1  1  0  0  0
  1 15  1  0  0  0
 15 16  1  0  0  0
 16 17  2  0  0  0
 17 18  1  0  0  0
 18 19  2  0  0  0
 19 20  1  0  0  0
 20 21  1  0  0  0
 20 22  2  0  0  0
  1  2  1  0  0  0
  2  3  2  0  0  0
  2 23  1  0  0  0
 23 24  1  0  0  0
 24 25  2  0  0  0
 25 26  1  0  0  0
 26 27  2  0  0  0
 27 28  1  0  0  0
 28 29  2  0  0  0
 29 30  1  0  0  0
 30 31  2  0  0  0
 31 32  1  0  0  0
 32 33  2  0  0  0
  7  8  1  0  0  0
  8  9  2  0  0  0
  9  4  1  0  0  0
 22 16  1  0  0  0
 33 24  1  0  0  0
 33 28  1  0  0  0
M  END
> <minimizedAffinity>
-8.27153

> <CNNscore>
0.7007218003

> <CNNaffinity>
6.8616209030

> <CNN_VS>
4.8080873489

> <CNNaffinity_variance>
0.0991456732

$$$$



 33 36  0  0  0  0  0  0  0  0999 V2000
    8.0348   -0.4149   23.0897 N   0  0  0  0  0  0  0  0  0  0  0  0
    7.7132   -0.0887   21.7552 C   0  0  0  0  0  0  0  0  0  0  0  0
    8.3642    0.7519   21.0970 O   0  0  0  0  0  0  0  0  0  0  0  0
    6.1009   -2.6113   25.9918 C   0  0  0  0  0  0  0  0  0  0  0  0
    5.8523   -1.2799   25.7881 C   0  0  0  0  0  0  0  0  0  0  0  0
    6.4600   -0.6726   24.7456 C   0  0  0  0  0  0  0  0  0  0  0  0
    7.3728   -1.3838   23.8958 C   0  0  0  0  0  0  0  0  0  0  0  0
    7.6130   -2.6979   24.0842 C   0  0  0  0  0  0  0  0  0  0  0  0
    6.9321   -3.3190   25.1615 C   0  0  0  0  0  0  0  0  0  0  0  0
    4.3144   -2.3013   27.5403 C   0  0  0  0  0  0  0  0  0  0  0  0
    5.4187   -3.2587   27.1526 C   0  0  0  0  0  0  0  0  0  0  0  0
    6.3891   -3.3772   28.2865 C   0  0  0  0  0  0  0  0  0  0  0  0
    4.9102   -4.5606   26.7290 C   0  0  0  0  0  0  0  0  0  0  0  0
    4.5301   -5.5688   26.4181 N   0  0  0  0  0  0  0  0  0  0  0  0
    8.9513    0.3715   23.8825 C   0  0  0  0  0  0  0  0  0  0  0  0
   10.3338    0.0468   23.9528 C   0  0  0  0  0  0  0  0  0  0  0  0
   11.2761    0.4174   23.0281 C   0  0  0  0  0  0  0  0  0  0  0  0
   12.5937    0.0089   23.0915 C   0  0  0  0  0  0  0  0  0  0  0  0
   12.9466   -0.8331   24.1299 C   0  0  0  0  0  0  0  0  0  0  0  0
   12.0176   -1.2494   25.0796 C   0  0  0  0  0  0  0  0  0  0  0  0
   12.4711   -2.4779   26.2759 Cl  0  0  0  0  0  0  0  0  0  0  0  0
   10.7235   -0.8066   24.9967 C   0  0  0  0  0  0  0  0  0  0  0  0
    6.5726   -0.7651   21.1380 C   0  0  0  0  0  0  0  0  0  0  0  0
    5.8632   -0.1764   20.0093 C   0  0  0  0  0  0  0  0  0  0  0  0
    6.3321   -0.4359   18.7493 C   0  0  0  0  0  0  0  0  0  0  0  0
    5.8250    0.1365   17.6447 N   0  0  0  0  0  0  0  0  0  0  0  0
    4.7868    1.0016   17.7670 C   0  0  0  0  0  0  0  0  0  0  0  0
    4.2771    1.2575   19.0390 C   0  0  0  0  0  0  0  0  0  0  0  0
    3.1451    2.0743   19.1187 C   0  0  0  0  0  0  0  0  0  0  0  0
    2.5459    2.3173   20.3282 C   0  0  0  0  0  0  0  0  0  0  0  0
    3.0998    1.7211   21.4607 C   0  0  0  0  0  0  0  0  0  0  0  0
    4.2108    0.9125   21.3747 C   0  0  0  0  0  0  0  0  0  0  0  0
    4.8154    0.6780   20.1521 C   0  0  0  0  0  0  0  0  0  0  0  0
 10 11  1  0  0  0
 11 12  1  0  0  0
 11 13  1  0  0  0
 13 14  3  0  0  0
 11  4  1  0  0  0
  4  5  2  0  0  0
  5  6  1  0  0  0
  6  7  2  0  0  0
  7  1  1  0  0  0
  1 15  1  0  0  0
 15 16  1  0  0  0
 16 17  2  0  0  0
 17 18  1  0  0  0
 18 19  2  0  0  0
 19 20  1  0  0  0
 20 21  1  0  0  0
 20 22  2  0  0  0
  1  2  1  0  0  0
  2  3  2  0  0  0
  2 23  1  0  0  0
 23 24  1  0  0  0
 24 25  2  0  0  0
 25 26  1  0  0  0
 26 27  2  0  0  0
 27 28  1  0  0  0
 28 29  2  0  0  0
 29 30  1  0  0  0
 30 31  2  0  0  0
 31 32  1  0  0  0
 32 33  2  0  0  0
  7  8  1  0  0  0
  8  9  2  0  0  0
  9  4  1  0  0  0
 22 16  1  0  0  0
 33 24  1  0  0  0
 33 28  1  0  0  0
M  END
> <minimizedAffinity>
-7.72772

> <CNNscore>
0.5914561749

> <CNNaffinity>
6.7388191223

> <CNN_VS>
3.9857161045

> <CNNaffinity_variance>
0.0373370573

$$$$



 33 36  0  0  0  0  0  0  0  0999 V2000
    7.6400   -0.8447   23.9243 N   0  0  0  0  0  0  0  0  0  0  0  0
    7.0366    0.0516   23.0171 C   0  0  0  0  0  0  0  0  0  0  0  0
    7.4240    1.2335   22.8873 O   0  0  0  0  0  0  0  0  0  0  0  0
    6.6435   -4.8324   23.6213 C   0  0  0  0  0  0  0  0  0  0  0  0
    7.5485   -4.2340   22.7853 C   0  0  0  0  0  0  0  0  0  0  0  0
    7.8859   -2.9490   23.0299 C   0  0  0  0  0  0  0  0  0  0  0  0
    7.2879   -2.2120   24.1071 C   0  0  0  0  0  0  0  0  0  0  0  0
    6.4047   -2.7990   24.9409 C   0  0  0  0  0  0  0  0  0  0  0  0
    6.0982   -4.1593   24.6846 C   0  0  0  0  0  0  0  0  0  0  0  0
    5.1394   -6.5678   24.2626 C   0  0  0  0  0  0  0  0  0  0  0  0
    6.2855   -6.2528   23.3279 C   0  0  0  0  0  0  0  0  0  0  0  0
    7.4509   -7.1305   23.6637 C   0  0  0  0  0  0  0  0  0  0  0  0
    5.9081   -6.3585   21.9210 C   0  0  0  0  0  0  0  0  0  0  0  0
    5.6353   -6.4313   20.8357 N   0  0  0  0  0  0  0  0  0  0  0  0
    8.5569   -0.4098   24.9525 C   0  0  0  0  0  0  0  0  0  0  0  0
    9.9360   -0.7529   24.9060 C   0  0  0  0  0  0  0  0  0  0  0  0
   10.5854   -1.5252   25.8346 C   0  0  0  0  0  0  0  0  0  0  0  0
   11.9449   -1.7640   25.7961 C   0  0  0  0  0  0  0  0  0  0  0  0
   12.6650   -1.1638   24.7797 C   0  0  0  0  0  0  0  0  0  0  0  0
   12.0488   -0.3566   23.8273 C   0  0  0  0  0  0  0  0  0  0  0  0
   13.0383    0.5434   22.6623 Cl  0  0  0  0  0  0  0  0  0  0  0  0
   10.6941   -0.1591   23.8849 C   0  0  0  0  0  0  0  0  0  0  0  0
    5.9173   -0.4355   22.2113 C   0  0  0  0  0  0  0  0  0  0  0  0
    5.7715   -0.0585   20.8112 C   0  0  0  0  0  0  0  0  0  0  0  0
    6.7223   -0.4923   19.9264 C   0  0  0  0  0  0  0  0  0  0  0  0
    6.7489   -0.1197   18.6359 N   0  0  0  0  0  0  0  0  0  0  0  0
    5.7838    0.7120   18.1691 C   0  0  0  0  0  0  0  0  0  0  0  0
    4.7910    1.1425   19.0478 C   0  0  0  0  0  0  0  0  0  0  0  0
    3.7574    1.9162   18.5109 C   0  0  0  0  0  0  0  0  0  0  0  0
    2.7097    2.3207   19.2981 C   0  0  0  0  0  0  0  0  0  0  0  0
    2.7128    1.9308   20.6371 C   0  0  0  0  0  0  0  0  0  0  0  0
    3.7302    1.1634   21.1581 C   0  0  0  0  0  0  0  0  0  0  0  0
    4.7887    0.7654   20.3602 C   0  0  0  0  0  0  0  0  0  0  0  0
 10 11  1  0  0  0
 11 12  1  0  0  0
 11 13  1  0  0  0
 13 14  3  0  0  0
 11  4  1  0  0  0
  4  5  2  0  0  0
  5  6  1  0  0  0
  6  7  2  0  0  0
  7  1  1  0  0  0
  1 15  1  0  0  0
 15 16  1  0  0  0
 16 17  2  0  0  0
 17 18  1  0  0  0
 18 19  2  0  0  0
 19 20  1  0  0  0
 20 21  1  0  0  0
 20 22  2  0  0  0
  1  2  1  0  0  0
  2  3  2  0  0  0
  2 23  1  0  0  0
 23 24  1  0  0  0
 24 25  2  0  0  0
 25 26  1  0  0  0
 26 27  2  0  0  0
 27 28  1  0  0  0
 28 29  2  0  0  0
 29 30  1  0  0  0
 30 31  2  0  0  0
 31 32  1  0  0  0
 32 33  2  0  0  0
  7  8  1  0  0  0
  8  9  2  0  0  0
  9  4  1  0  0  0
 22 16  1  0  0  0
 33 24  1  0  0  0
 33 28  1  0  0  0
M  END
> <minimizedAffinity>
-8.34639

> <CNNscore>
0.5759989023

> <CNNaffinity>
6.9108934402

> <CNN_VS>
3.9806671143

> <CNNaffinity_variance>
0.1949550956

$$$$



 33 36  0  0  0  0  0  0  0  0999 V2000
    8.1171   -1.0647   22.5869 N   0  0  0  0  0  0  0  0  0  0  0  0
    7.0218   -1.9522   22.5290 C   0  0  0  0  0  0  0  0  0  0  0  0
    7.1616   -3.1925   22.6038 O   0  0  0  0  0  0  0  0  0  0  0  0
    7.2404    2.9447   22.9645 C   0  0  0  0  0  0  0  0  0  0  0  0
    7.0921    2.0579   23.9979 C   0  0  0  0  0  0  0  0  0  0  0  0
    7.5038    0.7856   23.8069 C   0  0  0  0  0  0  0  0  0  0  0  0
    8.0440    0.3565   22.5478 C   0  0  0  0  0  0  0  0  0  0  0  0
    8.2032    1.2276   21.5300 C   0  0  0  0  0  0  0  0  0  0  0  0
    7.7990    2.5649   21.7708 C   0  0  0  0  0  0  0  0  0  0  0  0
    8.0303    5.1243   23.5219 C   0  0  0  0  0  0  0  0  0  0  0  0
    6.7753    4.3446   23.2002 C   0  0  0  0  0  0  0  0  0  0  0  0
    5.8647    4.3641   24.3884 C   0  0  0  0  0  0  0  0  0  0  0  0
    6.1096    4.8254   21.9925 C   0  0  0  0  0  0  0  0  0  0  0  0
    5.6053    5.1790   21.0553 N   0  0  0  0  0  0  0  0  0  0  0  0
    9.4858   -1.5109   22.4664 C   0  0  0  0  0  0  0  0  0  0  0  0
   10.3373   -1.5980   23.6017 C   0  0  0  0  0  0  0  0  0  0  0  0
   11.3121   -0.6891   23.9245 C   0  0  0  0  0  0  0  0  0  0  0  0
   12.1733   -0.8566   24.9909 C   0  0  0  0  0  0  0  0  0  0  0  0
   12.0426   -2.0146   25.7349 C   0  0  0  0  0  0  0  0  0  0  0  0
   11.0794   -2.9727   25.4305 C   0  0  0  0  0  0  0  0  0  0  0  0
   11.0772   -4.5238   26.2908 Cl  0  0  0  0  0  0  0  0  0  0  0  0
   10.2282   -2.7626   24.3775 C   0  0  0  0  0  0  0  0  0  0  0  0
    5.6836   -1.3831   22.3717 C   0  0  0  0  0  0  0  0  0  0  0  0
    5.2997   -0.6749   21.1573 C   0  0  0  0  0  0  0  0  0  0  0  0
    5.7270   -1.1777   19.9576 C   0  0  0  0  0  0  0  0  0  0  0  0
    5.5249   -0.5528   18.7856 N   0  0  0  0  0  0  0  0  0  0  0  0
    4.8511    0.6249   18.7733 C   0  0  0  0  0  0  0  0  0  0  0  0
    4.3836    1.1395   19.9815 C   0  0  0  0  0  0  0  0  0  0  0  0
    3.6080    2.3012   19.9211 C   0  0  0  0  0  0  0  0  0  0  0  0
    3.0564    2.8299   21.0601 C   0  0  0  0  0  0  0  0  0  0  0  0
    3.2921    2.1687   22.2651 C   0  0  0  0  0  0  0  0  0  0  0  0
    4.0514    1.0214   22.3170 C   0  0  0  0  0  0  0  0  0  0  0  0
    4.6119    0.4978   21.1651 C   0  0  0  0  0  0  0  0  0  0  0  0
 10 11  1  0  0  0
 11 12  1  0  0  0
 11 13  1  0  0  0
 13 14  3  0  0  0
 11  4  1  0  0  0
  4  5  2  0  0  0
  5  6  1  0  0  0
  6  7  2  0  0  0
  7  1  1  0  0  0
  1 15  1  0  0  0
 15 16  1  0  0  0
 16 17  2  0  0  0
 17 18  1  0  0  0
 18 19  2  0  0  0
 19 20  1  0  0  0
 20 21  1  0  0  0
 20 22  2  0  0  0
  1  2  1  0  0  0
  2  3  2  0  0  0
  2 23  1  0  0  0
 23 24  1  0  0  0
 24 25  2  0  0  0
 25 26  1  0  0  0
 26 27  2  0  0  0
 27 28  1  0  0  0
 28 29  2  0  0  0
 29 30  1  0  0  0
 30 31  2  0  0  0
 31 32  1  0  0  0
 32 33  2  0  0  0
  7  8  1  0  0  0
  8  9  2  0  0  0
  9  4  1  0  0  0
 22 16  1  0  0  0
 33 24  1  0  0  0
 33 28  1  0  0  0
M  END
> <minimizedAffinity>
-7.27022

> <CNNscore>
0.4543595612

> <CNNaffinity>
6.5571966171

> <CNN_VS>
2.9793250561

> <CNNaffinity_variance>
0.1316036433

$$$$



 33 36  0  0  0  0  0  0  0  0999 V2000
    7.6178   -0.7407   23.3043 N   0  0  0  0  0  0  0  0  0  0  0  0
    8.9635   -1.1092   23.0949 C   0  0  0  0  0  0  0  0  0  0  0  0
    9.2882   -2.0604   22.3510 O   0  0  0  0  0  0  0  0  0  0  0  0
    6.1977    1.8289   26.1969 C   0  0  0  0  0  0  0  0  0  0  0  0
    7.0203    0.7735   26.4891 C   0  0  0  0  0  0  0  0  0  0  0  0
    7.5162    0.0511   25.4610 C   0  0  0  0  0  0  0  0  0  0  0  0
    7.1640    0.3483   24.1013 C   0  0  0  0  0  0  0  0  0  0  0  0
    6.3635    1.3933   23.8061 C   0  0  0  0  0  0  0  0  0  0  0  0
    5.8888    2.1578   24.9017 C   0  0  0  0  0  0  0  0  0  0  0  0
    6.2386    1.9411   28.5783 C   0  0  0  0  0  0  0  0  0  0  0  0
    5.6607    2.6101   27.3516 C   0  0  0  0  0  0  0  0  0  0  0  0
    4.1692    2.4828   27.3771 C   0  0  0  0  0  0  0  0  0  0  0  0
    6.0892    3.9997   27.2153 C   0  0  0  0  0  0  0  0  0  0  0  0
    6.4370    5.0606   27.1102 N   0  0  0  0  0  0  0  0  0  0  0  0
    6.5114   -1.5790   22.9043 C   0  0  0  0  0  0  0  0  0  0  0  0
    6.2777   -2.8385   23.5214 C   0  0  0  0  0  0  0  0  0  0  0  0
    5.9791   -3.0207   24.8474 C   0  0  0  0  0  0  0  0  0  0  0  0
    5.8427   -4.2683   25.4232 C   0  0  0  0  0  0  0  0  0  0  0  0
    6.0477   -5.3674   24.6097 C   0  0  0  0  0  0  0  0  0  0  0  0
    6.3714   -5.2279   23.2628 C   0  0  0  0  0  0  0  0  0  0  0  0
    6.8126   -6.6577   22.3103 Cl  0  0  0  0  0  0  0  0  0  0  0  0
    6.4776   -3.9738   22.7209 C   0  0  0  0  0  0  0  0  0  0  0  0
   10.0014   -0.3424   23.7835 C   0  0  0  0  0  0  0  0  0  0  0  0
   11.0778   -1.0056   24.5082 C   0  0  0  0  0  0  0  0  0  0  0  0
   12.3613   -0.5895   24.2752 C   0  0  0  0  0  0  0  0  0  0  0  0
   13.4373   -1.1962   24.8035 N   0  0  0  0  0  0  0  0  0  0  0  0
   13.2576   -2.2626   25.6229 C   0  0  0  0  0  0  0  0  0  0  0  0
   11.9570   -2.6844   25.8946 C   0  0  0  0  0  0  0  0  0  0  0  0
   11.8043   -3.7209   26.8205 C   0  0  0  0  0  0  0  0  0  0  0  0
   10.5535   -4.1453   27.1901 C   0  0  0  0  0  0  0  0  0  0  0  0
    9.4537   -3.5071   26.6174 C   0  0  0  0  0  0  0  0  0  0  0  0
    9.6109   -2.4826   25.7111 C   0  0  0  0  0  0  0  0  0  0  0  0
   10.8758   -2.0647   25.3363 C   0  0  0  0  0  0  0  0  0  0  0  0
 10 11  1  0  0  0
 11 12  1  0  0  0
 11 13  1  0  0  0
 13 14  3  0  0  0
 11  4  1  0  0  0
  4  5  2  0  0  0
  5  6  1  0  0  0
  6  7  2  0  0  0
  7  1  1  0  0  0
  1 15  1  0  0  0
 15 16  1  0  0  0
 16 17  2  0  0  0
 17 18  1  0  0  0
 18 19  2  0  0  0
 19 20  1  0  0  0
 20 21  1  0  0  0
 20 22  2  0  0  0
  1  2  1  0  0  0
  2  3  2  0  0  0
  2 23  1  0  0  0
 23 24  1  0  0  0
 24 25  2  0  0  0
 25 26  1  0  0  0
 26 27  2  0  0  0
 27 28  1  0  0  0
 28 29  2  0  0  0
 29 30  1  0  0  0
 30 31  2  0  0  0
 31 32  1  0  0  0
 32 33  2  0  0  0
  7  8  1  0  0  0
  8  9  2  0  0  0
  9  4  1  0  0  0
 22 16  1  0  0  0
 33 24  1  0  0  0
 33 28  1  0  0  0
M  END
> <minimizedAffinity>
-7.08339

> <CNNscore>
0.4467779696

> <CNNaffinity>
6.6455459595

> <CNN_VS>
2.9690835476

> <CNNaffinity_variance>
0.0769398734

$$$$



 33 36  0  0  0  0  0  0  0  0999 V2000
    7.8825   -0.1693   22.8578 N   0  0  0  0  0  0  0  0  0  0  0  0
    7.7752    0.2355   21.5105 C   0  0  0  0  0  0  0  0  0  0  0  0
    8.3654    1.2445   21.0665 O   0  0  0  0  0  0  0  0  0  0  0  0
    6.4719   -3.9042   23.8812 C   0  0  0  0  0  0  0  0  0  0  0  0
    7.7128   -3.7099   23.3349 C   0  0  0  0  0  0  0  0  0  0  0  0
    8.1248   -2.4398   23.1301 C   0  0  0  0  0  0  0  0  0  0  0  0
    7.2776   -1.3216   23.4348 C   0  0  0  0  0  0  0  0  0  0  0  0
    6.0590   -1.5058   23.9836 C   0  0  0  0  0  0  0  0  0  0  0  0
    5.6678   -2.8472   24.2237 C   0  0  0  0  0  0  0  0  0  0  0  0
    5.4348   -5.3357   25.4813 C   0  0  0  0  0  0  0  0  0  0  0  0
    6.0389   -5.3179   24.0952 C   0  0  0  0  0  0  0  0  0  0  0  0
    7.2429   -6.2073   24.0707 C   0  0  0  0  0  0  0  0  0  0  0  0
    5.0745   -5.6734   23.0577 C   0  0  0  0  0  0  0  0  0  0  0  0
    4.3300   -5.9630   22.2706 N   0  0  0  0  0  0  0  0  0  0  0  0
    8.4495    0.6785   23.8809 C   0  0  0  0  0  0  0  0  0  0  0  0
    7.6751    1.6862   24.5185 C   0  0  0  0  0  0  0  0  0  0  0  0
    7.4714    2.9499   24.0265 C   0  0  0  0  0  0  0  0  0  0  0  0
    6.7816    3.9248   24.7196 C   0  0  0  0  0  0  0  0  0  0  0  0
    6.3079    3.5940   25.9757 C   0  0  0  0  0  0  0  0  0  0  0  0
    6.5090    2.3291   26.5215 C   0  0  0  0  0  0  0  0  0  0  0  0
    6.0533    2.0142   28.2065 Cl  0  0  0  0  0  0  0  0  0  0  0  0
    7.1801    1.3801   25.7957 C   0  0  0  0  0  0  0  0  0  0  0  0
    6.9364   -0.5635   20.6175 C   0  0  0  0  0  0  0  0  0  0  0  0
    6.0045    0.0651   19.6900 C   0  0  0  0  0  0  0  0  0  0  0  0
    6.2887    0.0025   18.3520 C   0  0  0  0  0  0  0  0  0  0  0  0
    5.5610    0.6349   17.4164 N   0  0  0  0  0  0  0  0  0  0  0  0
    4.4797    1.3594   17.7995 C   0  0  0  0  0  0  0  0  0  0  0  0
    4.1576    1.4127   19.1548 C   0  0  0  0  0  0  0  0  0  0  0  0
    2.9818    2.0839   19.5038 C   0  0  0  0  0  0  0  0  0  0  0  0
    2.5631    2.1214   20.8093 C   0  0  0  0  0  0  0  0  0  0  0  0
    3.3434    1.4676   21.7625 C   0  0  0  0  0  0  0  0  0  0  0  0
    4.4968    0.8028   21.4113 C   0  0  0  0  0  0  0  0  0  0  0  0
    4.9180    0.7758   20.0933 C   0  0  0  0  0  0  0  0  0  0  0  0
 10 11  1  0  0  0
 11 12  1  0  0  0
 11 13  1  0  0  0
 13 14  3  0  0  0
 11  4  1  0  0  0
  4  5  2  0  0  0
  5  6  1  0  0  0
  6  7  2  0  0  0
  7  1  1  0  0  0
  1 15  1  0  0  0
 15 16  1  0  0  0
 16 17  2  0  0  0
 17 18  1  0  0  0
 18 19  2  0  0  0
 19 20  1  0  0  0
 20 21  1  0  0  0
 20 22  2  0  0  0
  1  2  1  0  0  0
  2  3  2  0  0  0
  2 23  1  0  0  0
 23 24  1  0  0  0
 24 25  2  0  0  0
 25 26  1  0  0  0
 26 27  2  0  0  0
 27 28  1  0  0  0
 28 29  2  0  0  0
 29 30  1  0  0  0
 30 31  2  0  0  0
 31 32  1  0  0  0
 32 33  2  0  0  0
  7  8  1  0  0  0
  8  9  2  0  0  0
  9  4  1  0  0  0
 22 16  1  0  0  0
 33 24  1  0  0  0
 33 28  1  0  0  0
M  END
> <minimizedAffinity>
-6.94578

> <CNNscore>
0.4289724529

> <CNNaffinity>
6.3373398781

> <CNN_VS>
2.7185442448

> <CNNaffinity_variance>
0.2965561748

$$$$



 33 36  0  0  0  0  0  0  0  0999 V2000
    6.9776   -0.2597   23.7434 N   0  0  0  0  0  0  0  0  0  0  0  0
    8.3130    0.1870   23.6548 C   0  0  0  0  0  0  0  0  0  0  0  0
    8.6419    1.3661   23.9106 O   0  0  0  0  0  0  0  0  0  0  0  0
    5.9439   -4.2484   23.8331 C   0  0  0  0  0  0  0  0  0  0  0  0
    5.8338   -3.4343   24.9291 C   0  0  0  0  0  0  0  0  0  0  0  0
    6.0988   -2.1190   24.7724 C   0  0  0  0  0  0  0  0  0  0  0  0
    6.5237   -1.5884   23.5079 C   0  0  0  0  0  0  0  0  0  0  0  0
    6.6230   -2.3828   22.4220 C   0  0  0  0  0  0  0  0  0  0  0  0
    6.3014   -3.7512   22.6059 C   0  0  0  0  0  0  0  0  0  0  0  0
    4.6063   -6.0328   22.9892 C   0  0  0  0  0  0  0  0  0  0  0  0
    5.6478   -5.6990   24.0334 C   0  0  0  0  0  0  0  0  0  0  0  0
    5.0599   -5.8947   25.3962 C   0  0  0  0  0  0  0  0  0  0  0  0
    6.8836   -6.4569   23.8564 C   0  0  0  0  0  0  0  0  0  0  0  0
    7.8220   -7.0544   23.7148 N   0  0  0  0  0  0  0  0  0  0  0  0
    5.8613    0.6484   23.8694 C   0  0  0  0  0  0  0  0  0  0  0  0
    5.2968    1.2880   22.7318 C   0  0  0  0  0  0  0  0  0  0  0  0
    4.6369    0.6456   21.7158 C   0  0  0  0  0  0  0  0  0  0  0  0
    4.1778    1.2960   20.5875 C   0  0  0  0  0  0  0  0  0  0  0  0
    4.4314    2.6518   20.4905 C   0  0  0  0  0  0  0  0  0  0  0  0
    5.1147    3.3396   21.4897 C   0  0  0  0  0  0  0  0  0  0  0  0
    5.5833    5.0308   21.2324 Cl  0  0  0  0  0  0  0  0  0  0  0  0
    5.5370    2.6650   22.6052 C   0  0  0  0  0  0  0  0  0  0  0  0
    9.3343   -0.7761   23.2440 C   0  0  0  0  0  0  0  0  0  0  0  0
   10.4670   -1.0921   24.1046 C   0  0  0  0  0  0  0  0  0  0  0  0
   11.5127   -0.2089   24.1411 C   0  0  0  0  0  0  0  0  0  0  0  0
   12.6515   -0.4465   24.8131 N   0  0  0  0  0  0  0  0  0  0  0  0
   12.7784   -1.6052   25.5076 C   0  0  0  0  0  0  0  0  0  0  0  0
   11.7138   -2.5051   25.5055 C   0  0  0  0  0  0  0  0  0  0  0  0
   11.8386   -3.6408   26.3115 C   0  0  0  0  0  0  0  0  0  0  0  0
   10.8065   -4.5382   26.4143 C   0  0  0  0  0  0  0  0  0  0  0  0
    9.6403   -4.2743   25.6965 C   0  0  0  0  0  0  0  0  0  0  0  0
    9.5213   -3.1507   24.9098 C   0  0  0  0  0  0  0  0  0  0  0  0
   10.5696   -2.2534   24.8041 C   0  0  0  0  0  0  0  0  0  0  0  0
 10 11  1  0  0  0
 11 12  1  0  0  0
 11 13  1  0  0  0
 13 14  3  0  0  0
 11  4  1  0  0  0
  4  5  2  0  0  0
  5  6  1  0  0  0
  6  7  2  0  0  0
  7  1  1  0  0  0
  1 15  1  0  0  0
 15 16  1  0  0  0
 16 17  2  0  0  0
 17 18  1  0  0  0
 18 19  2  0  0  0
 19 20  1  0  0  0
 20 21  1  0  0  0
 20 22  2  0  0  0
  1  2  1  0  0  0
  2  3  2  0  0  0
  2 23  1  0  0  0
 23 24  1  0  0  0
 24 25  2  0  0  0
 25 26  1  0  0  0
 26 27  2  0  0  0
 27 28  1  0  0  0
 28 29  2  0  0  0
 29 30  1  0  0  0
 30 31  2  0  0  0
 31 32  1  0  0  0
 32 33  2  0  0  0
  7  8  1  0  0  0
  8  9  2  0  0  0
  9  4  1  0  0  0
 22 16  1  0  0  0
 33 24  1  0  0  0
 33 28  1  0  0  0
M  END
> <minimizedAffinity>
-7.41346

> <CNNscore>
0.4233846366

> <CNNaffinity>
6.8583936691

> <CNN_VS>
2.9037384987

> <CNNaffinity_variance>
0.0915918797

$$$$
