


 40 41  0  0  0  0  0  0  0  0999 V2000
    9.5415   -0.6798   23.1281 C   0  0  0  0  0  0  0  0  0  0  0  0
    9.4948    0.5346   22.7102 O   0  0  0  0  0  0  0  0  0  0  0  0
    8.5895   -1.6006   22.7333 N   0  0  0  0  0  0  0  0  0  0  0  0
    8.5943   -3.0274   23.1019 C   0  0  0  0  0  0  0  0  0  0  0  0
    7.2224   -3.2300   23.5984 C   0  0  0  0  0  0  0  0  0  0  0  0
    6.4187   -2.0612   23.0268 C   0  0  0  0  0  0  0  0  0  0  0  0
    7.3970   -1.5455   21.9616 C   0  0  0  0  0  0  0  0  0  0  0  0
    6.5713   -4.5427   23.2000 C   0  0  0  0  0  0  0  0  0  0  0  0
    6.3621   -5.2889   24.3189 F   0  0  0  0  0  0  0  0  0  0  0  0
    7.3874   -5.1385   22.2636 F   0  0  0  0  0  0  0  0  0  0  0  0
    5.3908   -4.1666   22.5645 F   0  0  0  0  0  0  0  0  0  0  0  0
    6.9816   -0.3404   21.3211 C   0  0  0  0  0  0  0  0  0  0  0  0
    7.0096   -0.1277   20.1095 O   0  0  0  0  0  0  0  0  0  0  0  0
    6.4685    0.7576   22.1048 N   0  0  0  0  0  0  0  0  0  0  0  0
    6.4144    0.6206   23.1199 H   0  0  0  0  0  0  0  0  0  0  0  0
    6.0453    1.9875   21.4094 C   0  0  0  0  0  0  0  0  0  0  0  0
    6.7802    3.1728   22.0084 C   0  0  0  0  0  0  0  0  0  0  0  0
    8.2101    3.0678   21.9646 N   0  0  0  0  0  0  0  0  0  0  0  0
    8.6153    2.9135   22.9339 H   0  0  0  0  0  0  0  0  0  0  0  0
    8.4660    2.2484   21.3627 H   0  0  0  0  0  0  0  0  0  0  0  0
    8.5933    3.9574   21.5905 H   0  0  0  0  0  0  0  0  0  0  0  0
    4.5712    2.1119   21.4228 C   0  0  0  0  0  0  0  0  0  0  0  0
    4.0533    2.9888   20.3040 C   0  0  0  0  0  0  0  0  0  0  0  0
    2.7803    3.7097   20.7053 C   0  0  0  0  0  0  0  0  0  0  0  0
    1.9269    3.7749   19.4758 C   0  0  0  0  0  0  0  0  0  0  0  0
    2.2706    2.5816   18.7649 N   0  0  0  0  0  0  0  0  0  0  0  0
    3.5717    2.1649   19.1407 C   0  0  0  0  0  0  0  0  0  0  0  0
    4.1796    1.2442   18.5515 O   0  0  0  0  0  0  0  0  0  0  0  0
    1.6407    2.1028   18.0714 H   0  0  0  0  0  0  0  0  0  0  0  0
   10.7013   -0.8916   24.0272 C   0  0  0  0  0  0  0  0  0  0  0  0
    9.8539   -2.3962   25.9220 C   0  0  0  0  0  0  0  0  0  0  0  0
    9.0686   -1.5222   26.4043 O   0  0  0  0  0  0  0  0  0  0  0  0
   10.6316   -2.1255   24.7931 N   0  0  0  0  0  0  0  0  0  0  0  0
   11.2347   -2.9640   24.4785 H   0  0  0  0  0  0  0  0  0  0  0  0
   10.9076   -4.5563   26.4986 C   0  0  0  0  0  0  0  0  0  0  0  0
    9.8651   -3.6086   26.5959 O   0  0  0  0  0  0  0  0  0  0  0  0
   12.0136   -0.8894   23.2325 C   0  0  0  0  0  0  0  0  0  0  0  0
   12.9861   -1.7575   23.9907 C   0  0  0  0  0  0  0  0  0  0  0  0
   12.5941    0.4633   23.0258 C   0  0  0  0  0  0  0  0  0  0  0  0
   11.7736   -1.4722   21.8428 C   0  0  0  0  0  0  0  0  0  0  0  0
 35 36  1  0  0  0
 36 31  1  0  0  0
 31 32  2  0  0  0
 31 33  1  0  0  0
 33 30  1  0  0  0
 30  1  1  0  0  0
  1  2  2  0  0  0
  1  3  1  0  0  0
  3  4  1  0  0  0
  4  5  1  0  0  0
  5  8  1  0  0  0
  8  9  1  0  0  0
  8 10  1  0  0  0
  8 11  1  0  0  0
  5  6  1  0  0  0
  6  7  1  0  0  0
  7 12  1  0  0  0
 12 13  2  0  0  0
 12 14  1  0  0  0
 14 16  1  0  0  0
 16 17  1  0  0  0
 17 18  1  0  0  0
 16 22  1  0  0  0
 22 23  1  0  0  0
 23 24  1  0  0  0
 24 25  1  0  0  0
 25 26  1  0  0  0
 26 27  1  0  0  0
 27 28  2  0  0  0
 30 37  1  0  0  0
 37 38  1  0  0  0
 37 39  1  0  0  0
 37 40  1  0  0  0
  7  3  1  0  0  0
 27 23  1  0  0  0
 33 34  1  0  0  0
 14 15  1  0  0  0
 18 19  1  0  0  0
 18 20  1  0  0  0
 18 21  1  0  0  0
 26 29  1  0  0  0
M  CHG 1  18   1
M  END
> <minimizedAffinity>
-6.69319

> <CNNscore>
0.4342820942

> <CNNaffinity>
6.5623116493

> <CNN_VS>
2.8498945236

> <CNNaffinity_variance>
0.1835929900

$$$$



 40 41  0  0  0  0  0  0  0  0999 V2000
    8.0490   -1.0576   22.2456 C   0  0  0  0  0  0  0  0  0  0  0  0
    6.9116   -1.5227   22.6218 O   0  0  0  0  0  0  0  0  0  0  0  0
    9.2276   -1.6228   22.6946 N   0  0  0  0  0  0  0  0  0  0  0  0
   10.5761   -1.2069   22.2702 C   0  0  0  0  0  0  0  0  0  0  0  0
   11.2714   -1.0292   23.5566 C   0  0  0  0  0  0  0  0  0  0  0  0
   10.4365   -1.8149   24.5687 C   0  0  0  0  0  0  0  0  0  0  0  0
    9.5618   -2.6481   23.6208 C   0  0  0  0  0  0  0  0  0  0  0  0
   12.7100   -1.5137   23.5933 C   0  0  0  0  0  0  0  0  0  0  0  0
   13.1393   -1.7182   22.3180 F   0  0  0  0  0  0  0  0  0  0  0  0
   12.7455   -2.6356   24.3920 F   0  0  0  0  0  0  0  0  0  0  0  0
   13.4025   -0.4981   24.2474 F   0  0  0  0  0  0  0  0  0  0  0  0
    8.5531   -3.4135   24.2776 C   0  0  0  0  0  0  0  0  0  0  0  0
    8.3528   -4.6174   24.1210 O   0  0  0  0  0  0  0  0  0  0  0  0
    7.6644   -2.7820   25.2234 N   0  0  0  0  0  0  0  0  0  0  0  0
    7.8026   -1.7803   25.3960 H   0  0  0  0  0  0  0  0  0  0  0  0
    6.6349   -3.6043   25.8863 C   0  0  0  0  0  0  0  0  0  0  0  0
    5.3302   -3.4757   25.1214 C   0  0  0  0  0  0  0  0  0  0  0  0
    5.3235   -4.1318   23.8459 N   0  0  0  0  0  0  0  0  0  0  0  0
    5.3260   -3.4284   23.0503 H   0  0  0  0  0  0  0  0  0  0  0  0
    6.1862   -4.7228   23.7702 H   0  0  0  0  0  0  0  0  0  0  0  0
    4.4575   -4.7002   23.7736 H   0  0  0  0  0  0  0  0  0  0  0  0
    6.5384   -3.2596   27.3218 C   0  0  0  0  0  0  0  0  0  0  0  0
    5.2465   -2.5494   27.6618 C   0  0  0  0  0  0  0  0  0  0  0  0
    5.4986   -1.1286   28.1296 C   0  0  0  0  0  0  0  0  0  0  0  0
    4.4816   -0.8479   29.1932 C   0  0  0  0  0  0  0  0  0  0  0  0
    4.2718   -2.1255   29.8026 N   0  0  0  0  0  0  0  0  0  0  0  0
    4.5955   -3.1496   28.8784 C   0  0  0  0  0  0  0  0  0  0  0  0
    4.3484   -4.3559   29.0972 O   0  0  0  0  0  0  0  0  0  0  0  0
    3.9273   -2.2630   30.7870 H   0  0  0  0  0  0  0  0  0  0  0  0
    7.8785    0.0903   21.3227 C   0  0  0  0  0  0  0  0  0  0  0  0
    6.4831   -0.1951   19.1912 C   0  0  0  0  0  0  0  0  0  0  0  0
    7.4825   -0.4349   18.4450 O   0  0  0  0  0  0  0  0  0  0  0  0
    6.6428    0.0489   20.5577 N   0  0  0  0  0  0  0  0  0  0  0  0
    5.7092    0.2145   21.0743 H   0  0  0  0  0  0  0  0  0  0  0  0
    4.6503    0.9464   17.9885 C   0  0  0  0  0  0  0  0  0  0  0  0
    5.2555   -0.2017   18.5453 O   0  0  0  0  0  0  0  0  0  0  0  0
    7.9276    1.4177   22.0905 C   0  0  0  0  0  0  0  0  0  0  0  0
    9.2870    2.0197   21.8375 C   0  0  0  0  0  0  0  0  0  0  0  0
    7.6966    1.2805   23.5524 C   0  0  0  0  0  0  0  0  0  0  0  0
    6.8413    2.3536   21.5685 C   0  0  0  0  0  0  0  0  0  0  0  0
 35 36  1  0  0  0
 36 31  1  0  0  0
 31 32  2  0  0  0
 31 33  1  0  0  0
 33 30  1  0  0  0
 30  1  1  0  0  0
  1  2  2  0  0  0
  1  3  1  0  0  0
  3  4  1  0  0  0
  4  5  1  0  0  0
  5  8  1  0  0  0
  8  9  1  0  0  0
  8 10  1  0  0  0
  8 11  1  0  0  0
  5  6  1  0  0  0
  6  7  1  0  0  0
  7 12  1  0  0  0
 12 13  2  0  0  0
 12 14  1  0  0  0
 14 16  1  0  0  0
 16 17  1  0  0  0
 17 18  1  0  0  0
 16 22  1  0  0  0
 22 23  1  0  0  0
 23 24  1  0  0  0
 24 25  1  0  0  0
 25 26  1  0  0  0
 26 27  1  0  0  0
 27 28  2  0  0  0
 30 37  1  0  0  0
 37 38  1  0  0  0
 37 39  1  0  0  0
 37 40  1  0  0  0
  7  3  1  0  0  0
 27 23  1  0  0  0
 33 34  1  0  0  0
 14 15  1  0  0  0
 18 19  1  0  0  0
 18 20  1  0  0  0
 18 21  1  0  0  0
 26 29  1  0  0  0
M  CHG 1  18   1
M  END
> <minimizedAffinity>
-6.34664

> <CNNscore>
0.4011898935

> <CNNaffinity>
6.3504109383

> <CNN_VS>
2.5477206707

> <CNNaffinity_variance>
0.3300971389

$$$$



 40 41  0  0  0  0  0  0  0  0999 V2000
    8.2299   -0.8113   24.4914 C   0  0  0  0  0  0  0  0  0  0  0  0
    7.2305   -0.0813   24.1450 O   0  0  0  0  0  0  0  0  0  0  0  0
    9.5241   -0.4206   24.2043 N   0  0  0  0  0  0  0  0  0  0  0  0
   10.7354   -1.1515   24.6169 C   0  0  0  0  0  0  0  0  0  0  0  0
   11.4881   -1.2533   23.3548 C   0  0  0  0  0  0  0  0  0  0  0  0
   10.8950   -0.1704   22.4526 C   0  0  0  0  0  0  0  0  0  0  0  0
   10.1134    0.6547   23.4851 C   0  0  0  0  0  0  0  0  0  0  0  0
   12.9892   -1.0566   23.4725 C   0  0  0  0  0  0  0  0  0  0  0  0
   13.3458    0.0505   22.7656 F   0  0  0  0  0  0  0  0  0  0  0  0
   13.5907   -2.2208   23.0475 F   0  0  0  0  0  0  0  0  0  0  0  0
   13.2171   -0.9293   24.8402 F   0  0  0  0  0  0  0  0  0  0  0  0
    9.3176    1.6952   22.9204 C   0  0  0  0  0  0  0  0  0  0  0  0
    9.0285    1.8088   21.7298 O   0  0  0  0  0  0  0  0  0  0  0  0
    8.7693    2.7286   23.7656 N   0  0  0  0  0  0  0  0  0  0  0  0
    8.9736    2.6675   24.7690 H   0  0  0  0  0  0  0  0  0  0  0  0
    7.9484    3.7873   23.1486 C   0  0  0  0  0  0  0  0  0  0  0  0
    8.7299    5.0884   23.1579 C   0  0  0  0  0  0  0  0  0  0  0  0
    8.0364    6.2009   22.5757 N   0  0  0  0  0  0  0  0  0  0  0  0
    8.4692    6.4823   21.6477 H   0  0  0  0  0  0  0  0  0  0  0  0
    7.0400    5.9216   22.4071 H   0  0  0  0  0  0  0  0  0  0  0  0
    8.1074    7.0082   23.2249 H   0  0  0  0  0  0  0  0  0  0  0  0
    6.6233    3.8655   23.8017 C   0  0  0  0  0  0  0  0  0  0  0  0
    6.7231    4.1631   25.2816 C   0  0  0  0  0  0  0  0  0  0  0  0
    5.9620    3.1431   26.1072 C   0  0  0  0  0  0  0  0  0  0  0  0
    5.3723    3.8915   27.2633 C   0  0  0  0  0  0  0  0  0  0  0  0
    5.1246    5.1952   26.7280 N   0  0  0  0  0  0  0  0  0  0  0  0
    5.9953    5.4316   25.6355 C   0  0  0  0  0  0  0  0  0  0  0  0
    6.1016    6.5521   25.0902 O   0  0  0  0  0  0  0  0  0  0  0  0
    4.4032    5.8626   27.1035 H   0  0  0  0  0  0  0  0  0  0  0  0
    7.7789   -2.0365   25.1943 C   0  0  0  0  0  0  0  0  0  0  0  0
    6.3403   -2.4037   27.2842 C   0  0  0  0  0  0  0  0  0  0  0  0
    7.1603   -3.2024   27.8347 O   0  0  0  0  0  0  0  0  0  0  0  0
    6.6130   -1.8323   26.0386 N   0  0  0  0  0  0  0  0  0  0  0  0
    5.8420   -1.1560   25.7007 H   0  0  0  0  0  0  0  0  0  0  0  0
    4.8800   -0.9109   28.6063 C   0  0  0  0  0  0  0  0  0  0  0  0
    5.1864   -2.1553   28.0129 O   0  0  0  0  0  0  0  0  0  0  0  0
    7.4601   -3.1530   24.1915 C   0  0  0  0  0  0  0  0  0  0  0  0
    5.9607   -3.1845   24.0335 C   0  0  0  0  0  0  0  0  0  0  0  0
    7.9564   -4.4934   24.5999 C   0  0  0  0  0  0  0  0  0  0  0  0
    8.1160   -2.8411   22.8495 C   0  0  0  0  0  0  0  0  0  0  0  0
 35 36  1  0  0  0
 36 31  1  0  0  0
 31 32  2  0  0  0
 31 33  1  0  0  0
 33 30  1  0  0  0
 30  1  1  0  0  0
  1  2  2  0  0  0
  1  3  1  0  0  0
  3  4  1  0  0  0
  4  5  1  0  0  0
  5  8  1  0  0  0
  8  9  1  0  0  0
  8 10  1  0  0  0
  8 11  1  0  0  0
  5  6  1  0  0  0
  6  7  1  0  0  0
  7 12  1  0  0  0
 12 13  2  0  0  0
 12 14  1  0  0  0
 14 16  1  0  0  0
 16 17  1  0  0  0
 17 18  1  0  0  0
 16 22  1  0  0  0
 22 23  1  0  0  0
 23 24  1  0  0  0
 24 25  1  0  0  0
 25 26  1  0  0  0
 26 27  1  0  0  0
 27 28  2  0  0  0
 30 37  1  0  0  0
 37 38  1  0  0  0
 37 39  1  0  0  0
 37 40  1  0  0  0
  7  3  1  0  0  0
 27 23  1  0  0  0
 33 34  1  0  0  0
 14 15  1  0  0  0
 18 19  1  0  0  0
 18 20  1  0  0  0
 18 21  1  0  0  0
 26 29  1  0  0  0
M  CHG 1  18   1
M  END
> <minimizedAffinity>
-5.43056

> <CNNscore>
0.3164739311

> <CNNaffinity>
5.9519796371

> <CNN_VS>
1.8836463690

> <CNNaffinity_variance>
0.3615819812

$$$$



 40 41  0  0  0  0  0  0  0  0999 V2000
    6.8967   -3.4371   23.9738 C   0  0  0  0  0  0  0  0  0  0  0  0
    6.3209   -3.0272   22.9005 O   0  0  0  0  0  0  0  0  0  0  0  0
    8.0681   -2.8516   24.4157 N   0  0  0  0  0  0  0  0  0  0  0  0
    8.7659   -3.2031   25.6651 C   0  0  0  0  0  0  0  0  0  0  0  0
   10.1501   -3.4111   25.2060 C   0  0  0  0  0  0  0  0  0  0  0  0
   10.2299   -2.6977   23.8557 C   0  0  0  0  0  0  0  0  0  0  0  0
    8.9470   -1.8555   23.9098 C   0  0  0  0  0  0  0  0  0  0  0  0
   11.2311   -2.8800   26.1306 C   0  0  0  0  0  0  0  0  0  0  0  0
   11.3235   -3.6962   27.2160 F   0  0  0  0  0  0  0  0  0  0  0  0
   10.9122   -1.5731   26.4275 F   0  0  0  0  0  0  0  0  0  0  0  0
   12.3843   -2.8747   25.3504 F   0  0  0  0  0  0  0  0  0  0  0  0
    8.6576   -1.1532   22.7024 C   0  0  0  0  0  0  0  0  0  0  0  0
    9.1719   -1.3725   21.6062 O   0  0  0  0  0  0  0  0  0  0  0  0
    7.6827   -0.0890   22.6984 N   0  0  0  0  0  0  0  0  0  0  0  0
    7.2179    0.1208   23.5884 H   0  0  0  0  0  0  0  0  0  0  0  0
    7.4061    0.6137   21.4314 C   0  0  0  0  0  0  0  0  0  0  0  0
    7.6251    2.1021   21.6328 C   0  0  0  0  0  0  0  0  0  0  0  0
    9.0002    2.4855   21.7732 N   0  0  0  0  0  0  0  0  0  0  0  0
    9.2170    2.7864   22.7683 H   0  0  0  0  0  0  0  0  0  0  0  0
    9.6023    1.6605   21.5364 H   0  0  0  0  0  0  0  0  0  0  0  0
    9.1824    3.2909   21.1437 H   0  0  0  0  0  0  0  0  0  0  0  0
    6.0642    0.2569   20.9207 C   0  0  0  0  0  0  0  0  0  0  0  0
    5.4878    1.3210   20.0128 C   0  0  0  0  0  0  0  0  0  0  0  0
    3.9942    1.4826   20.2227 C   0  0  0  0  0  0  0  0  0  0  0  0
    3.4084    1.7780   18.8759 C   0  0  0  0  0  0  0  0  0  0  0  0
    4.2649    1.0698   17.9746 N   0  0  0  0  0  0  0  0  0  0  0  0
    5.5389    0.8963   18.5702 C   0  0  0  0  0  0  0  0  0  0  0  0
    6.5228    0.4541   17.9372 O   0  0  0  0  0  0  0  0  0  0  0  0
    3.9754    0.7386   17.0189 H   0  0  0  0  0  0  0  0  0  0  0  0
    6.1395   -4.5502   24.5951 C   0  0  0  0  0  0  0  0  0  0  0  0
    4.4116   -3.7008   26.2878 C   0  0  0  0  0  0  0  0  0  0  0  0
    5.2573   -3.5247   27.2189 O   0  0  0  0  0  0  0  0  0  0  0  0
    4.8045   -4.1776   25.0345 N   0  0  0  0  0  0  0  0  0  0  0  0
    3.9881   -4.2573   24.3324 H   0  0  0  0  0  0  0  0  0  0  0  0
    2.6454   -2.0664   26.8518 C   0  0  0  0  0  0  0  0  0  0  0  0
    3.1026   -3.3820   26.6181 O   0  0  0  0  0  0  0  0  0  0  0  0
    6.0169   -5.7328   23.6256 C   0  0  0  0  0  0  0  0  0  0  0  0
    6.1810   -6.9888   24.4441 C   0  0  0  0  0  0  0  0  0  0  0  0
    7.0091   -5.7140   22.5190 C   0  0  0  0  0  0  0  0  0  0  0  0
    4.6393   -5.7185   22.9694 C   0  0  0  0  0  0  0  0  0  0  0  0
 35 36  1  0  0  0
 36 31  1  0  0  0
 31 32  2  0  0  0
 31 33  1  0  0  0
 33 30  1  0  0  0
 30  1  1  0  0  0
  1  2  2  0  0  0
  1  3  1  0  0  0
  3  4  1  0  0  0
  4  5  1  0  0  0
  5  8  1  0  0  0
  8  9  1  0  0  0
  8 10  1  0  0  0
  8 11  1  0  0  0
  5  6  1  0  0  0
  6  7  1  0  0  0
  7 12  1  0  0  0
 12 13  2  0  0  0
 12 14  1  0  0  0
 14 16  1  0  0  0
 16 17  1  0  0  0
 17 18  1  0  0  0
 16 22  1  0  0  0
 22 23  1  0  0  0
 23 24  1  0  0  0
 24 25  1  0  0  0
 25 26  1  0  0  0
 26 27  1  0  0  0
 27 28  2  0  0  0
 30 37  1  0  0  0
 37 38  1  0  0  0
 37 39  1  0  0  0
 37 40  1  0  0  0
  7  3  1  0  0  0
 27 23  1  0  0  0
 33 34  1  0  0  0
 14 15  1  0  0  0
 18 19  1  0  0  0
 18 20  1  0  0  0
 18 21  1  0  0  0
 26 29  1  0  0  0
M  CHG 1  18   1
M  END
> <minimizedAffinity>
-7.07664

> <CNNscore>
0.2765970528

> <CNNaffinity>
6.1310529709

> <CNN_VS>
1.6958311796

> <CNNaffinity_variance>
0.0800088421

$$$$



 40 41  0  0  0  0  0  0  0  0999 V2000
    7.8030   -1.0116   24.4030 C   0  0  0  0  0  0  0  0  0  0  0  0
    6.7772   -0.4458   23.8746 O   0  0  0  0  0  0  0  0  0  0  0  0
    9.0707   -0.4936   24.2164 N   0  0  0  0  0  0  0  0  0  0  0  0
   10.2977   -1.0279   24.8331 C   0  0  0  0  0  0  0  0  0  0  0  0
   11.2025   -1.1550   23.6776 C   0  0  0  0  0  0  0  0  0  0  0  0
   10.6047   -0.2430   22.6055 C   0  0  0  0  0  0  0  0  0  0  0  0
    9.6183    0.5734   23.4532 C   0  0  0  0  0  0  0  0  0  0  0  0
   12.6475   -0.7651   23.9342 C   0  0  0  0  0  0  0  0  0  0  0  0
   12.8879    0.4430   23.3551 F   0  0  0  0  0  0  0  0  0  0  0  0
   13.4393   -1.7892   23.4630 F   0  0  0  0  0  0  0  0  0  0  0  0
   12.7594   -0.7385   25.3218 F   0  0  0  0  0  0  0  0  0  0  0  0
    8.7848    1.4503   22.6975 C   0  0  0  0  0  0  0  0  0  0  0  0
    8.7078    1.4832   21.4699 O   0  0  0  0  0  0  0  0  0  0  0  0
    7.9300    2.3981   23.3714 N   0  0  0  0  0  0  0  0  0  0  0  0
    7.9512    2.3980   24.3969 H   0  0  0  0  0  0  0  0  0  0  0  0
    7.0791    3.2874   22.5587 C   0  0  0  0  0  0  0  0  0  0  0  0
    7.3222    4.7254   22.9792 C   0  0  0  0  0  0  0  0  0  0  0  0
    8.0751    4.8695   24.1916 N   0  0  0  0  0  0  0  0  0  0  0  0
    7.4647    5.2245   24.9848 H   0  0  0  0  0  0  0  0  0  0  0  0
    8.4574    3.9310   24.4603 H   0  0  0  0  0  0  0  0  0  0  0  0
    8.8307    5.5628   24.0284 H   0  0  0  0  0  0  0  0  0  0  0  0
    5.6642    2.8609   22.6289 C   0  0  0  0  0  0  0  0  0  0  0  0
    4.7119    4.0298   22.7535 C   0  0  0  0  0  0  0  0  0  0  0  0
    3.7958    3.8762   23.9528 C   0  0  0  0  0  0  0  0  0  0  0  0
    2.4701    4.4433   23.5463 C   0  0  0  0  0  0  0  0  0  0  0  0
    2.4057    4.1735   22.1426 N   0  0  0  0  0  0  0  0  0  0  0  0
    3.7183    4.0495   21.6237 C   0  0  0  0  0  0  0  0  0  0  0  0
    3.9527    3.9751   20.3974 O   0  0  0  0  0  0  0  0  0  0  0  0
    1.5107    4.0862   21.5964 H   0  0  0  0  0  0  0  0  0  0  0  0
    7.4105   -2.2111   25.1811 C   0  0  0  0  0  0  0  0  0  0  0  0
    5.6457   -2.3717   27.0336 C   0  0  0  0  0  0  0  0  0  0  0  0
    6.4801   -2.6633   27.9458 O   0  0  0  0  0  0  0  0  0  0  0  0
    6.0613   -2.1453   25.7189 N   0  0  0  0  0  0  0  0  0  0  0  0
    5.2517   -1.8844   25.0538 H   0  0  0  0  0  0  0  0  0  0  0  0
    3.3076   -1.6281   26.7350 C   0  0  0  0  0  0  0  0  0  0  0  0
    4.3248   -2.2971   27.4507 O   0  0  0  0  0  0  0  0  0  0  0  0
    7.5280   -3.4782   24.3240 C   0  0  0  0  0  0  0  0  0  0  0  0
    8.5312   -4.3754   25.0044 C   0  0  0  0  0  0  0  0  0  0  0  0
    7.9444   -3.2230   22.9201 C   0  0  0  0  0  0  0  0  0  0  0  0
    6.1734   -4.1769   24.2516 C   0  0  0  0  0  0  0  0  0  0  0  0
 35 36  1  0  0  0
 36 31  1  0  0  0
 31 32  2  0  0  0
 31 33  1  0  0  0
 33 30  1  0  0  0
 30  1  1  0  0  0
  1  2  2  0  0  0
  1  3  1  0  0  0
  3  4  1  0  0  0
  4  5  1  0  0  0
  5  8  1  0  0  0
  8  9  1  0  0  0
  8 10  1  0  0  0
  8 11  1  0  0  0
  5  6  1  0  0  0
  6  7  1  0  0  0
  7 12  1  0  0  0
 12 13  2  0  0  0
 12 14  1  0  0  0
 14 16  1  0  0  0
 16 17  1  0  0  0
 17 18  1  0  0  0
 16 22  1  0  0  0
 22 23  1  0  0  0
 23 24  1  0  0  0
 24 25  1  0  0  0
 25 26  1  0  0  0
 26 27  1  0  0  0
 27 28  2  0  0  0
 30 37  1  0  0  0
 37 38  1  0  0  0
 37 39  1  0  0  0
 37 40  1  0  0  0
  7  3  1  0  0  0
 27 23  1  0  0  0
 33 34  1  0  0  0
 14 15  1  0  0  0
 18 19  1  0  0  0
 18 20  1  0  0  0
 18 21  1  0  0  0
 26 29  1  0  0  0
M  CHG 1  18   1
M  END
> <minimizedAffinity>
-5.45290

> <CNNscore>
0.2275514156

> <CNNaffinity>
5.9220190048

> <CNN_VS>
1.3475638628

> <CNNaffinity_variance>
0.3612556756

$$$$



 40 41  0  0  0  0  0  0  0  0999 V2000
    7.2529   -1.2412   23.9453 C   0  0  0  0  0  0  0  0  0  0  0  0
    6.2304   -0.9890   23.2087 O   0  0  0  0  0  0  0  0  0  0  0  0
    8.4057   -0.4865   23.8371 N   0  0  0  0  0  0  0  0  0  0  0  0
    9.6029   -0.6526   24.6802 C   0  0  0  0  0  0  0  0  0  0  0  0
   10.6839   -0.7286   23.6823 C   0  0  0  0  0  0  0  0  0  0  0  0
   10.0915   -0.1191   22.4110 C   0  0  0  0  0  0  0  0  0  0  0  0
    8.8428    0.5648   22.9860 C   0  0  0  0  0  0  0  0  0  0  0  0
   11.9645   -0.0006   24.0508 C   0  0  0  0  0  0  0  0  0  0  0  0
   11.7631    1.3393   23.9216 F   0  0  0  0  0  0  0  0  0  0  0  0
   12.9678   -0.5044   23.2524 F   0  0  0  0  0  0  0  0  0  0  0  0
   12.2216   -0.3912   25.3623 F   0  0  0  0  0  0  0  0  0  0  0  0
    7.9800    1.1301   22.0007 C   0  0  0  0  0  0  0  0  0  0  0  0
    8.1988    1.1595   20.7901 O   0  0  0  0  0  0  0  0  0  0  0  0
    6.7257    1.7274   22.3918 N   0  0  0  0  0  0  0  0  0  0  0  0
    6.4947    1.7143   23.3912 H   0  0  0  0  0  0  0  0  0  0  0  0
    5.8569    2.2998   21.3463 C   0  0  0  0  0  0  0  0  0  0  0  0
    5.9029    3.8141   21.4387 C   0  0  0  0  0  0  0  0  0  0  0  0
    4.6990    4.4706   21.0177 N   0  0  0  0  0  0  0  0  0  0  0  0
    4.8401    4.9819   20.0977 H   0  0  0  0  0  0  0  0  0  0  0  0
    3.9530    3.7461   20.8847 H   0  0  0  0  0  0  0  0  0  0  0  0
    4.4361    5.1689   21.7399 H   0  0  0  0  0  0  0  0  0  0  0  0
    4.4968    1.7234   21.4270 C   0  0  0  0  0  0  0  0  0  0  0  0
    4.0893    1.0189   20.1516 C   0  0  0  0  0  0  0  0  0  0  0  0
    5.2976    0.5396   19.3698 C   0  0  0  0  0  0  0  0  0  0  0  0
    4.9534    0.7008   17.9206 C   0  0  0  0  0  0  0  0  0  0  0  0
    4.0851    1.8380   17.9063 N   0  0  0  0  0  0  0  0  0  0  0  0
    3.4649    1.9760   19.1727 C   0  0  0  0  0  0  0  0  0  0  0  0
    2.5380    2.7890   19.3829 O   0  0  0  0  0  0  0  0  0  0  0  0
    3.9408    2.4628   17.0723 H   0  0  0  0  0  0  0  0  0  0  0  0
    6.9900   -2.3847   24.8517 C   0  0  0  0  0  0  0  0  0  0  0  0
    8.6660   -4.3244   24.8826 C   0  0  0  0  0  0  0  0  0  0  0  0
    8.0431   -5.0126   24.0156 O   0  0  0  0  0  0  0  0  0  0  0  0
    8.1928   -3.0742   25.2896 N   0  0  0  0  0  0  0  0  0  0  0  0
    8.8317   -2.5903   26.0131 H   0  0  0  0  0  0  0  0  0  0  0  0
   10.7148   -4.2715   26.2639 C   0  0  0  0  0  0  0  0  0  0  0  0
    9.8259   -4.9083   25.3702 O   0  0  0  0  0  0  0  0  0  0  0  0
    6.2154   -1.9271   26.0945 C   0  0  0  0  0  0  0  0  0  0  0  0
    4.7593   -2.2224   25.8362 C   0  0  0  0  0  0  0  0  0  0  0  0
    6.3919   -0.4879   26.4220 C   0  0  0  0  0  0  0  0  0  0  0  0
    6.6940   -2.7085   27.3147 C   0  0  0  0  0  0  0  0  0  0  0  0
 35 36  1  0  0  0
 36 31  1  0  0  0
 31 32  2  0  0  0
 31 33  1  0  0  0
 33 30  1  0  0  0
 30  1  1  0  0  0
  1  2  2  0  0  0
  1  3  1  0  0  0
  3  4  1  0  0  0
  4  5  1  0  0  0
  5  8  1  0  0  0
  8  9  1  0  0  0
  8 10  1  0  0  0
  8 11  1  0  0  0
  5  6  1  0  0  0
  6  7  1  0  0  0
  7 12  1  0  0  0
 12 13  2  0  0  0
 12 14  1  0  0  0
 14 16  1  0  0  0
 16 17  1  0  0  0
 17 18  1  0  0  0
 16 22  1  0  0  0
 22 23  1  0  0  0
 23 24  1  0  0  0
 24 25  1  0  0  0
 25 26  1  0  0  0
 26 27  1  0  0  0
 27 28  2  0  0  0
 30 37  1  0  0  0
 37 38  1  0  0  0
 37 39  1  0  0  0
 37 40  1  0  0  0
  7  3  1  0  0  0
 27 23  1  0  0  0
 33 34  1  0  0  0
 14 15  1  0  0  0
 18 19  1  0  0  0
 18 20  1  0  0  0
 18 21  1  0  0  0
 26 29  1  0  0  0
M  CHG 1  18   1
M  END
> <minimizedAffinity>
-7.36217

> <CNNscore>
0.1914689392

> <CNNaffinity>
5.9048242569

> <CNN_VS>
1.1305904388

> <CNNaffinity_variance>
0.1315362751

$$$$



 40 41  0  0  0  0  0  0  0  0999 V2000
    7.3377   -1.2151   24.0882 C   0  0  0  0  0  0  0  0  0  0  0  0
    6.2664   -0.9643   23.4240 O   0  0  0  0  0  0  0  0  0  0  0  0
    8.4964   -0.4976   23.8586 N   0  0  0  0  0  0  0  0  0  0  0  0
    9.7523   -0.6630   24.6116 C   0  0  0  0  0  0  0  0  0  0  0  0
   10.7485   -0.8088   23.5364 C   0  0  0  0  0  0  0  0  0  0  0  0
   10.0723   -0.2344   22.2908 C   0  0  0  0  0  0  0  0  0  0  0  0
    8.8902    0.5063   22.9325 C   0  0  0  0  0  0  0  0  0  0  0  0
   12.0718   -0.1025   23.7725 C   0  0  0  0  0  0  0  0  0  0  0  0
   11.8330    1.2189   23.9951 F   0  0  0  0  0  0  0  0  0  0  0  0
   12.8749   -0.3596   22.6831 F   0  0  0  0  0  0  0  0  0  0  0  0
   12.6210   -0.7524   24.8746 F   0  0  0  0  0  0  0  0  0  0  0  0
    7.9661    1.0556   21.9948 C   0  0  0  0  0  0  0  0  0  0  0  0
    8.0896    1.0318   20.7707 O   0  0  0  0  0  0  0  0  0  0  0  0
    6.7609    1.7009   22.4574 N   0  0  0  0  0  0  0  0  0  0  0  0
    6.6090    1.7331   23.4714 H   0  0  0  0  0  0  0  0  0  0  0  0
    5.8263    2.2550   21.4600 C   0  0  0  0  0  0  0  0  0  0  0  0
    5.7947    3.7663   21.5969 C   0  0  0  0  0  0  0  0  0  0  0  0
    4.6918    4.3990   20.9331 N   0  0  0  0  0  0  0  0  0  0  0  0
    5.0155    4.9433   20.0807 H   0  0  0  0  0  0  0  0  0  0  0  0
    4.0213    3.6567   20.6189 H   0  0  0  0  0  0  0  0  0  0  0  0
    4.2489    5.0655   21.5947 H   0  0  0  0  0  0  0  0  0  0  0  0
    4.5025    1.6036   21.5691 C   0  0  0  0  0  0  0  0  0  0  0  0
    4.0648    0.9593   20.2721 C   0  0  0  0  0  0  0  0  0  0  0  0
    5.2415    0.7170   19.3459 C   0  0  0  0  0  0  0  0  0  0  0  0
    4.7381    0.9505   17.9543 C   0  0  0  0  0  0  0  0  0  0  0  0
    3.7339    1.9554   18.1248 N   0  0  0  0  0  0  0  0  0  0  0  0
    3.2292    1.9007   19.4477 C   0  0  0  0  0  0  0  0  0  0  0  0
    2.2309    2.5587   19.8146 O   0  0  0  0  0  0  0  0  0  0  0  0
    3.4289    2.6223   17.3705 H   0  0  0  0  0  0  0  0  0  0  0  0
    7.1195   -2.3137   25.0597 C   0  0  0  0  0  0  0  0  0  0  0  0
    5.3231   -1.5851   26.7373 C   0  0  0  0  0  0  0  0  0  0  0  0
    6.0792   -0.7689   27.3499 O   0  0  0  0  0  0  0  0  0  0  0  0
    5.7889   -2.3225   25.6456 N   0  0  0  0  0  0  0  0  0  0  0  0
    5.0349   -2.9589   25.2069 H   0  0  0  0  0  0  0  0  0  0  0  0
    3.0503   -2.5562   26.7335 C   0  0  0  0  0  0  0  0  0  0  0  0
    4.0308   -1.6715   27.2339 O   0  0  0  0  0  0  0  0  0  0  0  0
    7.3677   -3.6780   24.4032 C   0  0  0  0  0  0  0  0  0  0  0  0
    8.6183   -4.2435   25.0280 C   0  0  0  0  0  0  0  0  0  0  0  0
    7.5190   -3.6203   22.9256 C   0  0  0  0  0  0  0  0  0  0  0  0
    6.1864   -4.6036   24.6795 C   0  0  0  0  0  0  0  0  0  0  0  0
 35 36  1  0  0  0
 36 31  1  0  0  0
 31 32  2  0  0  0
 31 33  1  0  0  0
 33 30  1  0  0  0
 30  1  1  0  0  0
  1  2  2  0  0  0
  1  3  1  0  0  0
  3  4  1  0  0  0
  4  5  1  0  0  0
  5  8  1  0  0  0
  8  9  1  0  0  0
  8 10  1  0  0  0
  8 11  1  0  0  0
  5  6  1  0  0  0
  6  7  1  0  0  0
  7 12  1  0  0  0
 12 13  2  0  0  0
 12 14  1  0  0  0
 14 16  1  0  0  0
 16 17  1  0  0  0
 17 18  1  0  0  0
 16 22  1  0  0  0
 22 23  1  0  0  0
 23 24  1  0  0  0
 24 25  1  0  0  0
 25 26  1  0  0  0
 26 27  1  0  0  0
 27 28  2  0  0  0
 30 37  1  0  0  0
 37 38  1  0  0  0
 37 39  1  0  0  0
 37 40  1  0  0  0
  7  3  1  0  0  0
 27 23  1  0  0  0
 33 34  1  0  0  0
 14 15  1  0  0  0
 18 19  1  0  0  0
 18 20  1  0  0  0
 18 21  1  0  0  0
 26 29  1  0  0  0
M  CHG 1  18   1
M  END
> <minimizedAffinity>
-6.58434

> <CNNscore>
0.1886367053

> <CNNaffinity>
5.8169922829

> <CNN_VS>
1.0972982645

> <CNNaffinity_variance>
0.1361158937

$$$$



 40 41  0  0  0  0  0  0  0  0999 V2000
    8.0900   -0.9524   22.2736 C   0  0  0  0  0  0  0  0  0  0  0  0
    6.9816   -1.5348   22.5633 O   0  0  0  0  0  0  0  0  0  0  0  0
    9.2880   -1.4203   22.7796 N   0  0  0  0  0  0  0  0  0  0  0  0
   10.6137   -0.8654   22.4536 C   0  0  0  0  0  0  0  0  0  0  0  0
   11.2101   -0.6686   23.7861 C   0  0  0  0  0  0  0  0  0  0  0  0
   10.3947   -1.5639   24.7201 C   0  0  0  0  0  0  0  0  0  0  0  0
    9.6623   -2.4415   23.6948 C   0  0  0  0  0  0  0  0  0  0  0  0
   12.6836   -1.0174   23.8996 C   0  0  0  0  0  0  0  0  0  0  0  0
   12.8944   -2.2339   23.3267 F   0  0  0  0  0  0  0  0  0  0  0  0
   13.0199   -0.9512   25.2339 F   0  0  0  0  0  0  0  0  0  0  0  0
   13.3382    0.0191   23.2392 F   0  0  0  0  0  0  0  0  0  0  0  0
    8.6936   -3.3205   24.2639 C   0  0  0  0  0  0  0  0  0  0  0  0
    8.4342   -3.4197   25.4627 O   0  0  0  0  0  0  0  0  0  0  0  0
    7.9131   -4.1875   23.4141 N   0  0  0  0  0  0  0  0  0  0  0  0
    8.0861   -4.1298   22.4046 H   0  0  0  0  0  0  0  0  0  0  0  0
    6.9183   -5.0812   24.0361 C   0  0  0  0  0  0  0  0  0  0  0  0
    7.3293   -6.5225   23.7967 C   0  0  0  0  0  0  0  0  0  0  0  0
    6.6892   -7.1429   22.6729 N   0  0  0  0  0  0  0  0  0  0  0  0
    5.9885   -7.8772   22.9851 H   0  0  0  0  0  0  0  0  0  0  0  0
    6.1785   -6.4050   22.1307 H   0  0  0  0  0  0  0  0  0  0  0  0
    7.4162   -7.6116   22.0984 H   0  0  0  0  0  0  0  0  0  0  0  0
    5.5550   -4.7485   23.5676 C   0  0  0  0  0  0  0  0  0  0  0  0
    4.5323   -4.7928   24.6817 C   0  0  0  0  0  0  0  0  0  0  0  0
    5.1111   -4.2864   25.9892 C   0  0  0  0  0  0  0  0  0  0  0  0
    4.4945   -5.1167   27.0731 C   0  0  0  0  0  0  0  0  0  0  0  0
    4.2862   -6.3860   26.4462 N   0  0  0  0  0  0  0  0  0  0  0  0
    4.1788   -6.2097   25.0444 C   0  0  0  0  0  0  0  0  0  0  0  0
    3.8331   -7.1330   24.2748 O   0  0  0  0  0  0  0  0  0  0  0  0
    4.2230   -7.2995   26.9643 H   0  0  0  0  0  0  0  0  0  0  0  0
    7.8665    0.2061   21.3756 C   0  0  0  0  0  0  0  0  0  0  0  0
    6.5058   -0.1786   19.2372 C   0  0  0  0  0  0  0  0  0  0  0  0
    7.5195   -0.4268   18.5133 O   0  0  0  0  0  0  0  0  0  0  0  0
    6.6424    0.1161   20.5962 N   0  0  0  0  0  0  0  0  0  0  0  0
    5.6990    0.2833   21.0942 H   0  0  0  0  0  0  0  0  0  0  0  0
    4.8220    0.7764   17.7005 C   0  0  0  0  0  0  0  0  0  0  0  0
    5.2876   -0.2294   18.5758 O   0  0  0  0  0  0  0  0  0  0  0  0
    7.8360    1.5157   22.1743 C   0  0  0  0  0  0  0  0  0  0  0  0
    9.1653    2.1933   21.9549 C   0  0  0  0  0  0  0  0  0  0  0  0
    7.5930    1.3320   23.6292 C   0  0  0  0  0  0  0  0  0  0  0  0
    6.7092    2.4060   21.6582 C   0  0  0  0  0  0  0  0  0  0  0  0
 35 36  1  0  0  0
 36 31  1  0  0  0
 31 32  2  0  0  0
 31 33  1  0  0  0
 33 30  1  0  0  0
 30  1  1  0  0  0
  1  2  2  0  0  0
  1  3  1  0  0  0
  3  4  1  0  0  0
  4  5  1  0  0  0
  5  8  1  0  0  0
  8  9  1  0  0  0
  8 10  1  0  0  0
  8 11  1  0  0  0
  5  6  1  0  0  0
  6  7  1  0  0  0
  7 12  1  0  0  0
 12 13  2  0  0  0
 12 14  1  0  0  0
 14 16  1  0  0  0
 16 17  1  0  0  0
 17 18  1  0  0  0
 16 22  1  0  0  0
 22 23  1  0  0  0
 23 24  1  0  0  0
 24 25  1  0  0  0
 25 26  1  0  0  0
 26 27  1  0  0  0
 27 28  2  0  0  0
 30 37  1  0  0  0
 37 38  1  0  0  0
 37 39  1  0  0  0
 37 40  1  0  0  0
  7  3  1  0  0  0
 27 23  1  0  0  0
 33 34  1  0  0  0
 14 15  1  0  0  0
 18 19  1  0  0  0
 18 20  1  0  0  0
 18 21  1  0  0  0
 26 29  1  0  0  0
M  CHG 1  18   1
M  END
> <minimizedAffinity>
-7.08339

> <CNNscore>
0.1851955354

> <CNNaffinity>
6.2886438370

> <CNN_VS>
1.1646287441

> <CNNaffinity_variance>
0.1562721282

$$$$



 40 41  0  0  0  0  0  0  0  0999 V2000
    8.0715   -0.8431   22.1887 C   0  0  0  0  0  0  0  0  0  0  0  0
    6.9693   -1.4535   22.4423 O   0  0  0  0  0  0  0  0  0  0  0  0
    9.2731   -1.3220   22.6754 N   0  0  0  0  0  0  0  0  0  0  0  0
   10.5931   -0.7344   22.3854 C   0  0  0  0  0  0  0  0  0  0  0  0
   11.1814   -0.6004   23.7292 C   0  0  0  0  0  0  0  0  0  0  0  0
   10.3734   -1.5533   24.6110 C   0  0  0  0  0  0  0  0  0  0  0  0
    9.6564   -2.3851   23.5377 C   0  0  0  0  0  0  0  0  0  0  0  0
   12.6587   -0.9363   23.8314 C   0  0  0  0  0  0  0  0  0  0  0  0
   13.3715   -0.0069   23.1381 F   0  0  0  0  0  0  0  0  0  0  0  0
   12.8184   -2.2282   23.3802 F   0  0  0  0  0  0  0  0  0  0  0  0
   12.9248   -0.9222   25.1980 F   0  0  0  0  0  0  0  0  0  0  0  0
    8.6965   -3.3045   24.0554 C   0  0  0  0  0  0  0  0  0  0  0  0
    8.5121   -3.5515   25.2467 O   0  0  0  0  0  0  0  0  0  0  0  0
    7.8327   -4.0331   23.1576 N   0  0  0  0  0  0  0  0  0  0  0  0
    7.9417   -3.8497   22.1543 H   0  0  0  0  0  0  0  0  0  0  0  0
    6.8496   -4.9734   23.7275 C   0  0  0  0  0  0  0  0  0  0  0  0
    6.7879   -6.2142   22.8555 C   0  0  0  0  0  0  0  0  0  0  0  0
    5.5094   -6.4502   22.2495 N   0  0  0  0  0  0  0  0  0  0  0  0
    5.0267   -7.2912   22.6825 H   0  0  0  0  0  0  0  0  0  0  0  0
    4.9070   -5.6057   22.4021 H   0  0  0  0  0  0  0  0  0  0  0  0
    5.6553   -6.6440   21.2399 H   0  0  0  0  0  0  0  0  0  0  0  0
    5.5461   -4.3037   23.9307 C   0  0  0  0  0  0  0  0  0  0  0  0
    5.1691   -4.2006   25.3923 C   0  0  0  0  0  0  0  0  0  0  0  0
    3.8192   -4.8365   25.6652 C   0  0  0  0  0  0  0  0  0  0  0  0
    3.1635   -3.9983   26.7197 C   0  0  0  0  0  0  0  0  0  0  0  0
    3.6646   -2.6829   26.4627 N   0  0  0  0  0  0  0  0  0  0  0  0
    4.9092   -2.7733   25.7914 C   0  0  0  0  0  0  0  0  0  0  0  0
    5.6404   -1.7782   25.5931 O   0  0  0  0  0  0  0  0  0  0  0  0
    3.1709   -1.7961   26.7395 H   0  0  0  0  0  0  0  0  0  0  0  0
    7.8372    0.3580   21.3516 C   0  0  0  0  0  0  0  0  0  0  0  0
    6.3606    0.0117   19.2846 C   0  0  0  0  0  0  0  0  0  0  0  0
    7.3226   -0.3230   18.5258 O   0  0  0  0  0  0  0  0  0  0  0  0
    6.5765    0.3311   20.6277 N   0  0  0  0  0  0  0  0  0  0  0  0
    5.6693    0.5745   21.1602 H   0  0  0  0  0  0  0  0  0  0  0  0
    4.3360    1.1919   18.4993 C   0  0  0  0  0  0  0  0  0  0  0  0
    5.1137    0.0265   18.6771 O   0  0  0  0  0  0  0  0  0  0  0  0
    7.8776    1.6324   22.2049 C   0  0  0  0  0  0  0  0  0  0  0  0
    9.2176    2.2801   21.9611 C   0  0  0  0  0  0  0  0  0  0  0  0
    7.6857    1.3935   23.6594 C   0  0  0  0  0  0  0  0  0  0  0  0
    6.7595    2.5763   21.7719 C   0  0  0  0  0  0  0  0  0  0  0  0
 35 36  1  0  0  0
 36 31  1  0  0  0
 31 32  2  0  0  0
 31 33  1  0  0  0
 33 30  1  0  0  0
 30  1  1  0  0  0
  1  2  2  0  0  0
  1  3  1  0  0  0
  3  4  1  0  0  0
  4  5  1  0  0  0
  5  8  1  0  0  0
  8  9  1  0  0  0
  8 10  1  0  0  0
  8 11  1  0  0  0
  5  6  1  0  0  0
  6  7  1  0  0  0
  7 12  1  0  0  0
 12 13  2  0  0  0
 12 14  1  0  0  0
 14 16  1  0  0  0
 16 17  1  0  0  0
 17 18  1  0  0  0
 16 22  1  0  0  0
 22 23  1  0  0  0
 23 24  1  0  0  0
 24 25  1  0  0  0
 25 26  1  0  0  0
 26 27  1  0  0  0
 27 28  2  0  0  0
 30 37  1  0  0  0
 37 38  1  0  0  0
 37 39  1  0  0  0
 37 40  1  0  0  0
  7  3  1  0  0  0
 27 23  1  0  0  0
 33 34  1  0  0  0
 14 15  1  0  0  0
 18 19  1  0  0  0
 18 20  1  0  0  0
 18 21  1  0  0  0
 26 29  1  0  0  0
M  CHG 1  18   1
M  END
> <minimizedAffinity>
-6.81826

> <CNNscore>
0.1739605367

> <CNNaffinity>
6.2793941498

> <CNN_VS>
1.0923668146

> <CNNaffinity_variance>
0.0741240233

$$$$
