


 38 43  0  0  0  0  0  0  0  0999 V2000
    6.8740   -4.4949   23.5201 C   0  0  0  0  0  0  0  0  0  0  0  0
    7.2625   -3.9052   24.8711 C   0  0  0  0  0  0  0  0  0  0  0  0
    8.6726   -4.1274   25.2086 C   0  0  0  0  0  0  0  0  0  0  0  0
    9.3158   -2.8594   25.2958 N   0  0  0  0  0  0  0  0  0  0  0  0
    8.3218   -1.8648   25.3351 C   0  0  0  0  0  0  0  0  0  0  0  0
    8.4597   -0.6577   25.6453 O   0  0  0  0  0  0  0  0  0  0  0  0
    6.9831   -2.4378   24.9408 C   0  0  0  0  0  0  0  0  0  0  0  0
    6.6002   -1.8817   23.5958 C   0  0  0  0  0  0  0  0  0  0  0  0
    5.8011   -0.6832   23.6311 N   0  0  0  0  0  0  0  0  0  0  0  0
    4.8883   -0.5246   24.6786 C   0  0  0  0  0  0  0  0  0  0  0  0
    3.9597    0.3125   24.5413 O   0  0  0  0  0  0  0  0  0  0  0  0
    4.9984   -1.3011   25.9024 C   0  0  0  0  0  0  0  0  0  0  0  0
    4.0665   -1.0733   26.9366 C   0  0  0  0  0  0  0  0  0  0  0  0
    4.1755   -1.7662   28.0930 C   0  0  0  0  0  0  0  0  0  0  0  0
    5.2021   -2.6851   28.2349 C   0  0  0  0  0  0  0  0  0  0  0  0
    5.3463   -3.5846   29.7537 Cl  0  0  0  0  0  0  0  0  0  0  0  0
    6.1179   -2.9183   27.2351 C   0  0  0  0  0  0  0  0  0  0  0  0
    6.0078   -2.1996   26.0290 C   0  0  0  0  0  0  0  0  0  0  0  0
   10.7418   -2.6867   25.3434 C   0  0  0  0  0  0  0  0  0  0  0  0
   11.4888   -3.0299   26.4396 C   0  0  0  0  0  0  0  0  0  0  0  0
   12.8427   -2.8678   26.4569 N   0  0  0  0  0  0  0  0  0  0  0  0
   13.4448   -2.3589   25.3677 C   0  0  0  0  0  0  0  0  0  0  0  0
   12.7346   -1.9920   24.2248 C   0  0  0  0  0  0  0  0  0  0  0  0
   13.3460   -1.4798   23.1192 C   0  0  0  0  0  0  0  0  0  0  0  0
   12.5977   -1.1396   22.0177 C   0  0  0  0  0  0  0  0  0  0  0  0
   11.2338   -1.3160   22.0311 C   0  0  0  0  0  0  0  0  0  0  0  0
   10.6044   -1.8345   23.1476 C   0  0  0  0  0  0  0  0  0  0  0  0
   11.3665   -2.1667   24.2338 C   0  0  0  0  0  0  0  0  0  0  0  0
    6.0027    0.2792   22.5707 C   0  0  0  0  0  0  0  0  0  0  0  0
    5.2218   -0.0550   21.3192 C   0  0  0  0  0  0  0  0  0  0  0  0
    4.7454    1.0465   20.6195 N   0  0  0  0  0  0  0  0  0  0  0  0
    5.0504    2.3581   20.9627 C   0  0  0  0  0  0  0  0  0  0  0  0
    3.7228    3.1093   21.1555 C   0  0  0  0  0  0  0  0  0  0  0  0
    2.7155    2.7027   19.7534 S   0  0  0  0  0  0  0  0  0  0  0  0
    2.1073    3.9536   19.1562 O   0  0  0  0  0  0  0  0  0  0  0  0
    1.6404    1.7117   20.1217 O   0  0  0  0  0  0  0  0  0  0  0  0
    3.7591    1.9115   18.5571 C   0  0  0  0  0  0  0  0  0  0  0  0
    4.5071    0.7779   19.2360 C   0  0  0  0  0  0  0  0  0  0  0  0
  1  2  1  0  0  0
  2  3  1  0  0  0
  3  4  1  0  0  0
  4 19  1  0  0  0
 19 20  2  0  0  0
 20 21  1  0  0  0
 21 22  2  0  0  0
 22 23  1  0  0  0
 23 24  2  0  0  0
 24 25  1  0  0  0
 25 26  2  0  0  0
 26 27  1  0  0  0
 27 28  2  0  0  0
  4  5  1  0  0  0
  5  6  2  0  0  0
  5  7  1  0  0  0
  7  8  1  0  0  0
  8  9  1  0  0  0
  9 29  1  0  0  0
 29 30  1  0  0  0
 30 31  1  0  0  0
 31 32  1  0  0  0
 32 33  1  0  0  0
 33 34  1  0  0  0
 34 35  2  0  0  0
 34 36  2  0  0  0
 34 37  1  0  0  0
 37 38  1  0  0  0
  9 10  1  0  0  0
 10 11  2  0  0  0
 10 12  1  0  0  0
 12 13  2  0  0  0
 13 14  1  0  0  0
 14 15  2  0  0  0
 15 16  1  0  0  0
 15 17  1  0  0  0
 17 18  2  0  0  0
  7  2  1  0  0  0
 38 31  1  0  0  0
 18 12  1  0  0  0
 28 19  1  0  0  0
 18  7  1  0  0  0
 28 23  1  0  0  0
M  END
> <minimizedAffinity>
-9.23962

> <CNNscore>
0.4561487734

> <CNNaffinity>
6.6273345947

> <CNN_VS>
3.0230505466

> <CNNaffinity_variance>
0.1269030571

$$$$



 38 43  0  0  0  0  0  0  0  0999 V2000
    7.4913    0.1799   26.4998 C   0  0  0  0  0  0  0  0  0  0  0  0
    8.3480   -0.7973   25.7029 C   0  0  0  0  0  0  0  0  0  0  0  0
    7.7940   -2.1552   25.6769 C   0  0  0  0  0  0  0  0  0  0  0  0
    7.4711   -2.4798   24.3281 N   0  0  0  0  0  0  0  0  0  0  0  0
    8.0758   -1.5254   23.4901 C   0  0  0  0  0  0  0  0  0  0  0  0
    8.2312   -1.5879   22.2473 O   0  0  0  0  0  0  0  0  0  0  0  0
    8.5514   -0.3405   24.2935 C   0  0  0  0  0  0  0  0  0  0  0  0
    7.6826    0.8433   23.9634 C   0  0  0  0  0  0  0  0  0  0  0  0
    8.1671    1.6831   22.8975 N   0  0  0  0  0  0  0  0  0  0  0  0
    9.5492    1.8354   22.7484 C   0  0  0  0  0  0  0  0  0  0  0  0
    9.9746    2.8100   22.0768 O   0  0  0  0  0  0  0  0  0  0  0  0
   10.4831    0.8974   23.3489 C   0  0  0  0  0  0  0  0  0  0  0  0
   11.8648    1.0855   23.1361 C   0  0  0  0  0  0  0  0  0  0  0  0
   12.7439    0.2028   23.6628 C   0  0  0  0  0  0  0  0  0  0  0  0
   12.2655   -0.8677   24.4000 C   0  0  0  0  0  0  0  0  0  0  0  0
   13.4194   -2.0259   25.0811 Cl  0  0  0  0  0  0  0  0  0  0  0  0
   10.9212   -1.0639   24.6163 C   0  0  0  0  0  0  0  0  0  0  0  0
   10.0023   -0.1469   24.0704 C   0  0  0  0  0  0  0  0  0  0  0  0
    6.6685   -3.6093   23.9467 C   0  0  0  0  0  0  0  0  0  0  0  0
    6.9681   -4.3932   22.8635 C   0  0  0  0  0  0  0  0  0  0  0  0
    6.1981   -5.4675   22.5281 N   0  0  0  0  0  0  0  0  0  0  0  0
    5.1242   -5.7523   23.2853 C   0  0  0  0  0  0  0  0  0  0  0  0
    4.7718   -4.9890   24.3982 C   0  0  0  0  0  0  0  0  0  0  0  0
    3.6851   -5.2805   25.1681 C   0  0  0  0  0  0  0  0  0  0  0  0
    3.3866   -4.4973   26.2573 C   0  0  0  0  0  0  0  0  0  0  0  0
    4.1835   -3.4209   26.5700 C   0  0  0  0  0  0  0  0  0  0  0  0
    5.2876   -3.1169   25.7953 C   0  0  0  0  0  0  0  0  0  0  0  0
    5.5678   -3.9083   24.7154 C   0  0  0  0  0  0  0  0  0  0  0  0
    7.1797    2.3138   22.0498 C   0  0  0  0  0  0  0  0  0  0  0  0
    5.7967    1.7264   22.2234 C   0  0  0  0  0  0  0  0  0  0  0  0
    5.3725    0.9182   21.1762 N   0  0  0  0  0  0  0  0  0  0  0  0
    4.8489   -0.3559   21.3601 C   0  0  0  0  0  0  0  0  0  0  0  0
    5.6811   -1.3283   20.5082 C   0  0  0  0  0  0  0  0  0  0  0  0
    5.8276   -0.5824   18.9057 S   0  0  0  0  0  0  0  0  0  0  0  0
    5.5039   -1.5873   17.8210 O   0  0  0  0  0  0  0  0  0  0  0  0
    7.2024    0.0010   18.6979 O   0  0  0  0  0  0  0  0  0  0  0  0
    4.6784    0.7670   18.8374 C   0  0  0  0  0  0  0  0  0  0  0  0
    4.8980    1.6567   20.0482 C   0  0  0  0  0  0  0  0  0  0  0  0
  1  2  1  0  0  0
  2  3  1  0  0  0
  3  4  1  0  0  0
  4 19  1  0  0  0
 19 20  2  0  0  0
 20 21  1  0  0  0
 21 22  2  0  0  0
 22 23  1  0  0  0
 23 24  2  0  0  0
 24 25  1  0  0  0
 25 26  2  0  0  0
 26 27  1  0  0  0
 27 28  2  0  0  0
  4  5  1  0  0  0
  5  6  2  0  0  0
  5  7  1  0  0  0
  7  8  1  0  0  0
  8  9  1  0  0  0
  9 29  1  0  0  0
 29 30  1  0  0  0
 30 31  1  0  0  0
 31 32  1  0  0  0
 32 33  1  0  0  0
 33 34  1  0  0  0
 34 35  2  0  0  0
 34 36  2  0  0  0
 34 37  1  0  0  0
 37 38  1  0  0  0
  9 10  1  0  0  0
 10 11  2  0  0  0
 10 12  1  0  0  0
 12 13  2  0  0  0
 13 14  1  0  0  0
 14 15  2  0  0  0
 15 16  1  0  0  0
 15 17  1  0  0  0
 17 18  2  0  0  0
  7  2  1  0  0  0
 38 31  1  0  0  0
 18 12  1  0  0  0
 28 19  1  0  0  0
 18  7  1  0  0  0
 28 23  1  0  0  0
M  END
> <minimizedAffinity>
-8.75084

> <CNNscore>
0.3566620946

> <CNNaffinity>
6.6454992294

> <CNN_VS>
2.3701977730

> <CNNaffinity_variance>
0.1008629948

$$$$



 38 43  0  0  0  0  0  0  0  0999 V2000
    5.9958   -2.7585   22.4227 C   0  0  0  0  0  0  0  0  0  0  0  0
    6.7960   -2.6080   23.7116 C   0  0  0  0  0  0  0  0  0  0  0  0
    8.2098   -2.9654   23.5529 C   0  0  0  0  0  0  0  0  0  0  0  0
    8.9942   -1.8014   23.7955 N   0  0  0  0  0  0  0  0  0  0  0  0
    8.1679   -0.8316   24.3918 C   0  0  0  0  0  0  0  0  0  0  0  0
    8.5215    0.2245   24.9681 O   0  0  0  0  0  0  0  0  0  0  0  0
    6.7159   -1.2189   24.2594 C   0  0  0  0  0  0  0  0  0  0  0  0
    6.0545   -0.2774   23.2891 C   0  0  0  0  0  0  0  0  0  0  0  0
    5.4371    0.8819   23.8816 N   0  0  0  0  0  0  0  0  0  0  0  0
    4.8615    0.7525   25.1495 C   0  0  0  0  0  0  0  0  0  0  0  0
    4.0325    1.6220   25.5216 O   0  0  0  0  0  0  0  0  0  0  0  0
    5.2041   -0.3547   26.0266 C   0  0  0  0  0  0  0  0  0  0  0  0
    4.6146   -0.4134   27.3069 C   0  0  0  0  0  0  0  0  0  0  0  0
    4.9478   -1.4208   28.1456 C   0  0  0  0  0  0  0  0  0  0  0  0
    5.8623   -2.3730   27.7268 C   0  0  0  0  0  0  0  0  0  0  0  0
    6.3022   -3.6860   28.8310 Cl  0  0  0  0  0  0  0  0  0  0  0  0
    6.4450   -2.3290   26.4814 C   0  0  0  0  0  0  0  0  0  0  0  0
    6.1005   -1.2823   25.6045 C   0  0  0  0  0  0  0  0  0  0  0  0
   10.3912   -1.6965   23.4748 C   0  0  0  0  0  0  0  0  0  0  0  0
   10.8359   -1.2367   22.2631 C   0  0  0  0  0  0  0  0  0  0  0  0
   12.1672   -1.1346   21.9859 N   0  0  0  0  0  0  0  0  0  0  0  0
   13.0519   -1.4967   22.9315 C   0  0  0  0  0  0  0  0  0  0  0  0
   12.6561   -1.9718   24.1816 C   0  0  0  0  0  0  0  0  0  0  0  0
   13.5535   -2.3349   25.1414 C   0  0  0  0  0  0  0  0  0  0  0  0
   13.1081   -2.7920   26.3587 C   0  0  0  0  0  0  0  0  0  0  0  0
   11.7585   -2.8825   26.6078 C   0  0  0  0  0  0  0  0  0  0  0  0
   10.8405   -2.5168   25.6408 C   0  0  0  0  0  0  0  0  0  0  0  0
   11.3037   -2.0646   24.4359 C   0  0  0  0  0  0  0  0  0  0  0  0
    5.4578    2.1081   23.1152 C   0  0  0  0  0  0  0  0  0  0  0  0
    5.5464    1.8666   21.6247 C   0  0  0  0  0  0  0  0  0  0  0  0
    4.3213    1.7884   20.9743 N   0  0  0  0  0  0  0  0  0  0  0  0
    4.1293    1.0838   19.7921 C   0  0  0  0  0  0  0  0  0  0  0  0
    3.5325    2.0569   18.7622 C   0  0  0  0  0  0  0  0  0  0  0  0
    2.2123    2.9051   19.5891 S   0  0  0  0  0  0  0  0  0  0  0  0
    0.9649    2.9094   18.7316 O   0  0  0  0  0  0  0  0  0  0  0  0
    2.6113    4.3122   19.9554 O   0  0  0  0  0  0  0  0  0  0  0  0
    1.8944    2.0464   21.1083 C   0  0  0  0  0  0  0  0  0  0  0  0
    3.2036    1.8840   21.8601 C   0  0  0  0  0  0  0  0  0  0  0  0
  1  2  1  0  0  0
  2  3  1  0  0  0
  3  4  1  0  0  0
  4 19  1  0  0  0
 19 20  2  0  0  0
 20 21  1  0  0  0
 21 22  2  0  0  0
 22 23  1  0  0  0
 23 24  2  0  0  0
 24 25  1  0  0  0
 25 26  2  0  0  0
 26 27  1  0  0  0
 27 28  2  0  0  0
  4  5  1  0  0  0
  5  6  2  0  0  0
  5  7  1  0  0  0
  7  8  1  0  0  0
  8  9  1  0  0  0
  9 29  1  0  0  0
 29 30  1  0  0  0
 30 31  1  0  0  0
 31 32  1  0  0  0
 32 33  1  0  0  0
 33 34  1  0  0  0
 34 35  2  0  0  0
 34 36  2  0  0  0
 34 37  1  0  0  0
 37 38  1  0  0  0
  9 10  1  0  0  0
 10 11  2  0  0  0
 10 12  1  0  0  0
 12 13  2  0  0  0
 13 14  1  0  0  0
 14 15  2  0  0  0
 15 16  1  0  0  0
 15 17  1  0  0  0
 17 18  2  0  0  0
  7  2  1  0  0  0
 38 31  1  0  0  0
 18 12  1  0  0  0
 28 19  1  0  0  0
 18  7  1  0  0  0
 28 23  1  0  0  0
M  END
> <minimizedAffinity>
-8.91298

> <CNNscore>
0.3113787174

> <CNNaffinity>
6.2430758476

> <CNN_VS>
1.9439609051

> <CNNaffinity_variance>
0.2213752717

$$$$



 38 43  0  0  0  0  0  0  0  0999 V2000
    5.9954   -1.2011   21.4465 C   0  0  0  0  0  0  0  0  0  0  0  0
    6.7595   -2.0402   22.4644 C   0  0  0  0  0  0  0  0  0  0  0  0
    8.2137   -1.9764   22.2831 C   0  0  0  0  0  0  0  0  0  0  0  0
    8.7824   -1.3790   23.4444 N   0  0  0  0  0  0  0  0  0  0  0  0
    7.8002   -1.3542   24.4511 C   0  0  0  0  0  0  0  0  0  0  0  0
    7.9643   -1.1325   25.6744 O   0  0  0  0  0  0  0  0  0  0  0  0
    6.4383   -1.6422   23.8697 C   0  0  0  0  0  0  0  0  0  0  0  0
    5.6200   -0.3799   23.9152 C   0  0  0  0  0  0  0  0  0  0  0  0
    4.8102   -0.2146   25.0955 N   0  0  0  0  0  0  0  0  0  0  0  0
    4.2688   -1.3566   25.6943 C   0  0  0  0  0  0  0  0  0  0  0  0
    3.3010   -1.2156   26.4851 O   0  0  0  0  0  0  0  0  0  0  0  0
    4.8020   -2.6804   25.4191 C   0  0  0  0  0  0  0  0  0  0  0  0
    4.2347   -3.7909   26.0785 C   0  0  0  0  0  0  0  0  0  0  0  0
    4.7411   -5.0251   25.8559 C   0  0  0  0  0  0  0  0  0  0  0  0
    5.8075   -5.1698   24.9840 C   0  0  0  0  0  0  0  0  0  0  0  0
    6.4730   -6.7866   24.7015 Cl  0  0  0  0  0  0  0  0  0  0  0  0
    6.3708   -4.0965   24.3335 C   0  0  0  0  0  0  0  0  0  0  0  0
    5.8463   -2.8096   24.5617 C   0  0  0  0  0  0  0  0  0  0  0  0
   10.1387   -0.9098   23.5207 C   0  0  0  0  0  0  0  0  0  0  0  0
   10.5798    0.1837   22.8229 C   0  0  0  0  0  0  0  0  0  0  0  0
   11.8690    0.6174   22.9205 N   0  0  0  0  0  0  0  0  0  0  0  0
   12.7152   -0.0521   23.7228 C   0  0  0  0  0  0  0  0  0  0  0  0
   12.3210   -1.1714   24.4557 C   0  0  0  0  0  0  0  0  0  0  0  0
   13.1782   -1.8475   25.2721 C   0  0  0  0  0  0  0  0  0  0  0  0
   12.7353   -2.9418   25.9758 C   0  0  0  0  0  0  0  0  0  0  0  0
   11.4285   -3.3538   25.8564 C   0  0  0  0  0  0  0  0  0  0  0  0
   10.5515   -2.6749   25.0310 C   0  0  0  0  0  0  0  0  0  0  0  0
   11.0116   -1.5885   24.3389 C   0  0  0  0  0  0  0  0  0  0  0  0
    4.6139    1.1333   25.5811 C   0  0  0  0  0  0  0  0  0  0  0  0
    5.8718    1.9704   25.5119 C   0  0  0  0  0  0  0  0  0  0  0  0
    5.8281    3.0108   24.5923 N   0  0  0  0  0  0  0  0  0  0  0  0
    4.8354    3.9832   24.5878 C   0  0  0  0  0  0  0  0  0  0  0  0
    4.1998    3.9928   23.1879 C   0  0  0  0  0  0  0  0  0  0  0  0
    5.5458    4.0022   22.0328 S   0  0  0  0  0  0  0  0  0  0  0  0
    5.3283    5.0610   20.9731 O   0  0  0  0  0  0  0  0  0  0  0  0
    5.7328    2.6464   21.4002 O   0  0  0  0  0  0  0  0  0  0  0  0
    7.0273    4.3567   22.9416 C   0  0  0  0  0  0  0  0  0  0  0  0
    7.1188    3.4007   24.1178 C   0  0  0  0  0  0  0  0  0  0  0  0
  1  2  1  0  0  0
  2  3  1  0  0  0
  3  4  1  0  0  0
  4 19  1  0  0  0
 19 20  2  0  0  0
 20 21  1  0  0  0
 21 22  2  0  0  0
 22 23  1  0  0  0
 23 24  2  0  0  0
 24 25  1  0  0  0
 25 26  2  0  0  0
 26 27  1  0  0  0
 27 28  2  0  0  0
  4  5  1  0  0  0
  5  6  2  0  0  0
  5  7  1  0  0  0
  7  8  1  0  0  0
  8  9  1  0  0  0
  9 29  1  0  0  0
 29 30  1  0  0  0
 30 31  1  0  0  0
 31 32  1  0  0  0
 32 33  1  0  0  0
 33 34  1  0  0  0
 34 35  2  0  0  0
 34 36  2  0  0  0
 34 37  1  0  0  0
 37 38  1  0  0  0
  9 10  1  0  0  0
 10 11  2  0  0  0
 10 12  1  0  0  0
 12 13  2  0  0  0
 13 14  1  0  0  0
 14 15  2  0  0  0
 15 16  1  0  0  0
 15 17  1  0  0  0
 17 18  2  0  0  0
  7  2  1  0  0  0
 38 31  1  0  0  0
 18 12  1  0  0  0
 28 19  1  0  0  0
 18  7  1  0  0  0
 28 23  1  0  0  0
M  END
> <minimizedAffinity>
-7.51056

> <CNNscore>
0.2123774290

> <CNNaffinity>
6.5341033936

> <CNN_VS>
1.3876960278

> <CNNaffinity_variance>
0.1536287218

$$$$



 38 43  0  0  0  0  0  0  0  0999 V2000
    6.8499   -0.2861   26.3392 C   0  0  0  0  0  0  0  0  0  0  0  0
    7.9378   -1.2147   25.8116 C   0  0  0  0  0  0  0  0  0  0  0  0
    7.6661   -2.6296   26.0871 C   0  0  0  0  0  0  0  0  0  0  0  0
    7.5114   -3.3048   24.8424 N   0  0  0  0  0  0  0  0  0  0  0  0
    7.9745   -2.4551   23.8215 C   0  0  0  0  0  0  0  0  0  0  0  0
    8.2281   -2.7574   22.6312 O   0  0  0  0  0  0  0  0  0  0  0  0
    8.1477   -1.0492   24.3403 C   0  0  0  0  0  0  0  0  0  0  0  0
    7.0883   -0.1759   23.7237 C   0  0  0  0  0  0  0  0  0  0  0  0
    7.4729    0.4891   22.5047 N   0  0  0  0  0  0  0  0  0  0  0  0
    8.8048    0.8896   22.3586 C   0  0  0  0  0  0  0  0  0  0  0  0
    9.0765    1.7581   21.4905 O   0  0  0  0  0  0  0  0  0  0  0  0
    9.8598    0.3239   23.1830 C   0  0  0  0  0  0  0  0  0  0  0  0
   11.1889    0.7443   22.9667 C   0  0  0  0  0  0  0  0  0  0  0  0
   12.1847    0.2035   23.7050 C   0  0  0  0  0  0  0  0  0  0  0  0
   11.8754   -0.7528   24.6579 C   0  0  0  0  0  0  0  0  0  0  0  0
   13.1832   -1.4645   25.6170 Cl  0  0  0  0  0  0  0  0  0  0  0  0
   10.5842   -1.1723   24.8804 C   0  0  0  0  0  0  0  0  0  0  0  0
    9.5440   -0.6115   24.1145 C   0  0  0  0  0  0  0  0  0  0  0  0
    6.9773   -4.6328   24.7131 C   0  0  0  0  0  0  0  0  0  0  0  0
    7.6940   -5.6647   24.1664 C   0  0  0  0  0  0  0  0  0  0  0  0
    7.1701   -6.9196   24.0652 N   0  0  0  0  0  0  0  0  0  0  0  0
    5.9216   -7.1350   24.5155 C   0  0  0  0  0  0  0  0  0  0  0  0
    5.1465   -6.1223   25.0803 C   0  0  0  0  0  0  0  0  0  0  0  0
    3.8822   -6.3421   25.5404 C   0  0  0  0  0  0  0  0  0  0  0  0
    3.1644   -5.3085   26.0930 C   0  0  0  0  0  0  0  0  0  0  0  0
    3.7213   -4.0541   26.1816 C   0  0  0  0  0  0  0  0  0  0  0  0
    5.0027   -3.8211   25.7177 C   0  0  0  0  0  0  0  0  0  0  0  0
    5.7007   -4.8626   25.1710 C   0  0  0  0  0  0  0  0  0  0  0  0
    6.4439    0.6961   21.5098 C   0  0  0  0  0  0  0  0  0  0  0  0
    5.3025    1.5499   22.0157 C   0  0  0  0  0  0  0  0  0  0  0  0
    4.5595    2.1754   21.0225 N   0  0  0  0  0  0  0  0  0  0  0  0
    4.4229    3.5551   20.9271 C   0  0  0  0  0  0  0  0  0  0  0  0
    2.9190    3.8743   20.9193 C   0  0  0  0  0  0  0  0  0  0  0  0
    2.1827    2.7625   19.7498 S   0  0  0  0  0  0  0  0  0  0  0  0
    1.2617    3.5128   18.8115 O   0  0  0  0  0  0  0  0  0  0  0  0
    1.4414    1.6492   20.4458 O   0  0  0  0  0  0  0  0  0  0  0  0
    3.4974    2.0098   18.8273 C   0  0  0  0  0  0  0  0  0  0  0  0
    4.5096    1.4338   19.8017 C   0  0  0  0  0  0  0  0  0  0  0  0
  1  2  1  0  0  0
  2  3  1  0  0  0
  3  4  1  0  0  0
  4 19  1  0  0  0
 19 20  2  0  0  0
 20 21  1  0  0  0
 21 22  2  0  0  0
 22 23  1  0  0  0
 23 24  2  0  0  0
 24 25  1  0  0  0
 25 26  2  0  0  0
 26 27  1  0  0  0
 27 28  2  0  0  0
  4  5  1  0  0  0
  5  6  2  0  0  0
  5  7  1  0  0  0
  7  8  1  0  0  0
  8  9  1  0  0  0
  9 29  1  0  0  0
 29 30  1  0  0  0
 30 31  1  0  0  0
 31 32  1  0  0  0
 32 33  1  0  0  0
 33 34  1  0  0  0
 34 35  2  0  0  0
 34 36  2  0  0  0
 34 37  1  0  0  0
 37 38  1  0  0  0
  9 10  1  0  0  0
 10 11  2  0  0  0
 10 12  1  0  0  0
 12 13  2  0  0  0
 13 14  1  0  0  0
 14 15  2  0  0  0
 15 16  1  0  0  0
 15 17  1  0  0  0
 17 18  2  0  0  0
  7  2  1  0  0  0
 38 31  1  0  0  0
 18 12  1  0  0  0
 28 19  1  0  0  0
 18  7  1  0  0  0
 28 23  1  0  0  0
M  END
> <minimizedAffinity>
-9.50778

> <CNNscore>
0.1991797239

> <CNNaffinity>
6.3442978859

> <CNN_VS>
1.2636555433

> <CNNaffinity_variance>
0.0767502934

$$$$



 38 43  0  0  0  0  0  0  0  0999 V2000
    7.9740    1.8966   24.5572 C   0  0  0  0  0  0  0  0  0  0  0  0
    6.5544    1.4558   24.2193 C   0  0  0  0  0  0  0  0  0  0  0  0
    6.1151    1.9063   22.8942 C   0  0  0  0  0  0  0  0  0  0  0  0
    5.8784    0.7564   22.0877 N   0  0  0  0  0  0  0  0  0  0  0  0
    5.8498   -0.3711   22.9283 C   0  0  0  0  0  0  0  0  0  0  0  0
    5.4394   -1.5227   22.6495 O   0  0  0  0  0  0  0  0  0  0  0  0
    6.3990   -0.0297   24.2913 C   0  0  0  0  0  0  0  0  0  0  0  0
    7.7264   -0.7186   24.4605 C   0  0  0  0  0  0  0  0  0  0  0  0
    7.6698   -2.0185   25.0796 N   0  0  0  0  0  0  0  0  0  0  0  0
    6.6952   -2.2467   26.0562 C   0  0  0  0  0  0  0  0  0  0  0  0
    6.8484   -3.2198   26.8382 O   0  0  0  0  0  0  0  0  0  0  0  0
    5.5282   -1.3885   26.1758 C   0  0  0  0  0  0  0  0  0  0  0  0
    4.5633   -1.6887   27.1601 C   0  0  0  0  0  0  0  0  0  0  0  0
    3.4571   -0.9173   27.2623 C   0  0  0  0  0  0  0  0  0  0  0  0
    3.2972    0.1514   26.3960 C   0  0  0  0  0  0  0  0  0  0  0  0
    1.8433    1.1542   26.5278 Cl  0  0  0  0  0  0  0  0  0  0  0  0
    4.2296    0.4567   25.4317 C   0  0  0  0  0  0  0  0  0  0  0  0
    5.3834   -0.3433   25.3220 C   0  0  0  0  0  0  0  0  0  0  0  0
    5.6962    0.8017   20.6628 C   0  0  0  0  0  0  0  0  0  0  0  0
    6.6090    0.2756   19.7867 C   0  0  0  0  0  0  0  0  0  0  0  0
    6.4085    0.3198   18.4386 N   0  0  0  0  0  0  0  0  0  0  0  0
    5.2864    0.8955   17.9725 C   0  0  0  0  0  0  0  0  0  0  0  0
    4.3238    1.4473   18.8175 C   0  0  0  0  0  0  0  0  0  0  0  0
    3.1843    2.0273   18.3447 C   0  0  0  0  0  0  0  0  0  0  0  0
    2.2662    2.5513   19.2231 C   0  0  0  0  0  0  0  0  0  0  0  0
    2.4971    2.4902   20.5775 C   0  0  0  0  0  0  0  0  0  0  0  0
    3.6498    1.9042   21.0669 C   0  0  0  0  0  0  0  0  0  0  0  0
    4.5512    1.3888   20.1766 C   0  0  0  0  0  0  0  0  0  0  0  0
    8.6339   -3.0034   24.6419 C   0  0  0  0  0  0  0  0  0  0  0  0
    9.9875   -2.8292   25.2941 C   0  0  0  0  0  0  0  0  0  0  0  0
   10.9654   -2.2884   24.4688 N   0  0  0  0  0  0  0  0  0  0  0  0
   12.3272   -2.4521   24.6918 C   0  0  0  0  0  0  0  0  0  0  0  0
   12.9602   -1.0524   24.7536 C   0  0  0  0  0  0  0  0  0  0  0  0
   12.3253   -0.1595   23.3587 S   0  0  0  0  0  0  0  0  0  0  0  0
   13.4482    0.5314   22.6151 O   0  0  0  0  0  0  0  0  0  0  0  0
   11.2738    0.8359   23.7794 O   0  0  0  0  0  0  0  0  0  0  0  0
   11.5293   -1.3315   22.2915 C   0  0  0  0  0  0  0  0  0  0  0  0
   10.5440   -2.1465   23.1104 C   0  0  0  0  0  0  0  0  0  0  0  0
  1  2  1  0  0  0
  2  3  1  0  0  0
  3  4  1  0  0  0
  4 19  1  0  0  0
 19 20  2  0  0  0
 20 21  1  0  0  0
 21 22  2  0  0  0
 22 23  1  0  0  0
 23 24  2  0  0  0
 24 25  1  0  0  0
 25 26  2  0  0  0
 26 27  1  0  0  0
 27 28  2  0  0  0
  4  5  1  0  0  0
  5  6  2  0  0  0
  5  7  1  0  0  0
  7  8  1  0  0  0
  8  9  1  0  0  0
  9 29  1  0  0  0
 29 30  1  0  0  0
 30 31  1  0  0  0
 31 32  1  0  0  0
 32 33  1  0  0  0
 33 34  1  0  0  0
 34 35  2  0  0  0
 34 36  2  0  0  0
 34 37  1  0  0  0
 37 38  1  0  0  0
  9 10  1  0  0  0
 10 11  2  0  0  0
 10 12  1  0  0  0
 12 13  2  0  0  0
 13 14  1  0  0  0
 14 15  2  0  0  0
 15 16  1  0  0  0
 15 17  1  0  0  0
 17 18  2  0  0  0
  7  2  1  0  0  0
 38 31  1  0  0  0
 18 12  1  0  0  0
 28 19  1  0  0  0
 18  7  1  0  0  0
 28 23  1  0  0  0
M  END
> <minimizedAffinity>
-8.23298

> <CNNscore>
0.1887928694

> <CNNaffinity>
6.3843512535

> <CNN_VS>
1.2053200006

> <CNNaffinity_variance>
0.0661098883

$$$$



 38 43  0  0  0  0  0  0  0  0999 V2000
   10.2859    1.8904   22.5388 C   0  0  0  0  0  0  0  0  0  0  0  0
    9.3179    0.7692   22.1786 C   0  0  0  0  0  0  0  0  0  0  0  0
    9.8433   -0.5639   22.4923 C   0  0  0  0  0  0  0  0  0  0  0  0
    9.0048   -1.1526   23.4818 N   0  0  0  0  0  0  0  0  0  0  0  0
    7.8264   -0.3893   23.5693 C   0  0  0  0  0  0  0  0  0  0  0  0
    6.7532   -0.7018   24.1377 O   0  0  0  0  0  0  0  0  0  0  0  0
    7.9970    0.9315   22.8607 C   0  0  0  0  0  0  0  0  0  0  0  0
    8.0360    2.0277   23.8911 C   0  0  0  0  0  0  0  0  0  0  0  0
    6.7637    2.6333   24.1928 N   0  0  0  0  0  0  0  0  0  0  0  0
    5.8224    2.7470   23.1649 C   0  0  0  0  0  0  0  0  0  0  0  0
    4.8772    3.5644   23.3072 O   0  0  0  0  0  0  0  0  0  0  0  0
    5.9212    1.9457   21.9562 C   0  0  0  0  0  0  0  0  0  0  0  0
    4.9231    2.0817   20.9687 C   0  0  0  0  0  0  0  0  0  0  0  0
    4.9851    1.3199   19.8528 C   0  0  0  0  0  0  0  0  0  0  0  0
    6.0294    0.4221   19.7058 C   0  0  0  0  0  0  0  0  0  0  0  0
    6.1026   -0.5794   18.2470 Cl  0  0  0  0  0  0  0  0  0  0  0  0
    7.0100    0.2788   20.6600 C   0  0  0  0  0  0  0  0  0  0  0  0
    6.9499    1.0704   21.8231 C   0  0  0  0  0  0  0  0  0  0  0  0
    9.3510   -2.3328   24.2254 C   0  0  0  0  0  0  0  0  0  0  0  0
    8.5709   -3.4593   24.2238 C   0  0  0  0  0  0  0  0  0  0  0  0
    8.9263   -4.5717   24.9278 N   0  0  0  0  0  0  0  0  0  0  0  0
   10.0697   -4.5489   25.6350 C   0  0  0  0  0  0  0  0  0  0  0  0
   10.9017   -3.4302   25.6732 C   0  0  0  0  0  0  0  0  0  0  0  0
   12.0630   -3.4089   26.3870 C   0  0  0  0  0  0  0  0  0  0  0  0
   12.8481   -2.2809   26.3854 C   0  0  0  0  0  0  0  0  0  0  0  0
   12.4625   -1.1751   25.6643 C   0  0  0  0  0  0  0  0  0  0  0  0
   11.2866   -1.1867   24.9373 C   0  0  0  0  0  0  0  0  0  0  0  0
   10.5189   -2.3187   24.9518 C   0  0  0  0  0  0  0  0  0  0  0  0
    6.5495    3.0838   25.5501 C   0  0  0  0  0  0  0  0  0  0  0  0
    6.6919    4.5821   25.7000 C   0  0  0  0  0  0  0  0  0  0  0  0
    5.6033    5.2139   26.2880 N   0  0  0  0  0  0  0  0  0  0  0  0
    5.1466    6.4669   25.8975 C   0  0  0  0  0  0  0  0  0  0  0  0
    5.1244    7.3639   27.1460 C   0  0  0  0  0  0  0  0  0  0  0  0
    4.3338    6.4183   28.4214 S   0  0  0  0  0  0  0  0  0  0  0  0
    3.2729    7.2456   29.1152 O   0  0  0  0  0  0  0  0  0  0  0  0
    5.3382    5.8968   29.4177 O   0  0  0  0  0  0  0  0  0  0  0  0
    3.5867    5.0047   27.6532 C   0  0  0  0  0  0  0  0  0  0  0  0
    4.6311    4.3021   26.8039 C   0  0  0  0  0  0  0  0  0  0  0  0
  1  2  1  0  0  0
  2  3  1  0  0  0
  3  4  1  0  0  0
  4 19  1  0  0  0
 19 20  2  0  0  0
 20 21  1  0  0  0
 21 22  2  0  0  0
 22 23  1  0  0  0
 23 24  2  0  0  0
 24 25  1  0  0  0
 25 26  2  0  0  0
 26 27  1  0  0  0
 27 28  2  0  0  0
  4  5  1  0  0  0
  5  6  2  0  0  0
  5  7  1  0  0  0
  7  8  1  0  0  0
  8  9  1  0  0  0
  9 29  1  0  0  0
 29 30  1  0  0  0
 30 31  1  0  0  0
 31 32  1  0  0  0
 32 33  1  0  0  0
 33 34  1  0  0  0
 34 35  2  0  0  0
 34 36  2  0  0  0
 34 37  1  0  0  0
 37 38  1  0  0  0
  9 10  1  0  0  0
 10 11  2  0  0  0
 10 12  1  0  0  0
 12 13  2  0  0  0
 13 14  1  0  0  0
 14 15  2  0  0  0
 15 16  1  0  0  0
 15 17  1  0  0  0
 17 18  2  0  0  0
  7  2  1  0  0  0
 38 31  1  0  0  0
 18 12  1  0  0  0
 28 19  1  0  0  0
 18  7  1  0  0  0
 28 23  1  0  0  0
M  END
> <minimizedAffinity>
-7.83183

> <CNNscore>
0.1537394077

> <CNNaffinity>
6.2432641983

> <CNN_VS>
0.9598357677

> <CNNaffinity_variance>
0.1129622310

$$$$



 38 43  0  0  0  0  0  0  0  0999 V2000
    7.3766   -3.8164   22.8293 C   0  0  0  0  0  0  0  0  0  0  0  0
    8.1677   -2.5235   22.9918 C   0  0  0  0  0  0  0  0  0  0  0  0
    7.4716   -1.3537   22.4451 C   0  0  0  0  0  0  0  0  0  0  0  0
    7.1960   -0.4571   23.5171 N   0  0  0  0  0  0  0  0  0  0  0  0
    7.9498   -0.8627   24.6334 C   0  0  0  0  0  0  0  0  0  0  0  0
    8.1710   -0.2138   25.6834 O   0  0  0  0  0  0  0  0  0  0  0  0
    8.5030   -2.2503   24.4233 C   0  0  0  0  0  0  0  0  0  0  0  0
    7.7894   -3.1972   25.3503 C   0  0  0  0  0  0  0  0  0  0  0  0
    8.4249   -3.4031   26.6270 N   0  0  0  0  0  0  0  0  0  0  0  0
    9.8218   -3.3726   26.6858 C   0  0  0  0  0  0  0  0  0  0  0  0
   10.3898   -3.8863   27.6834 O   0  0  0  0  0  0  0  0  0  0  0  0
   10.6106   -2.7646   25.6272 C   0  0  0  0  0  0  0  0  0  0  0  0
   12.0148   -2.7358   25.7586 C   0  0  0  0  0  0  0  0  0  0  0  0
   12.7597   -2.1455   24.7963 C   0  0  0  0  0  0  0  0  0  0  0  0
   12.1247   -1.5818   23.7021 C   0  0  0  0  0  0  0  0  0  0  0  0
   13.1031   -0.8027   22.4481 Cl  0  0  0  0  0  0  0  0  0  0  0  0
   10.7565   -1.6026   23.5600 C   0  0  0  0  0  0  0  0  0  0  0  0
    9.9769   -2.2167   24.5592 C   0  0  0  0  0  0  0  0  0  0  0  0
    6.2994    0.6614   23.4147 C   0  0  0  0  0  0  0  0  0  0  0  0
    4.9371    0.5186   23.4495 C   0  0  0  0  0  0  0  0  0  0  0  0
    4.1063    1.5964   23.3626 N   0  0  0  0  0  0  0  0  0  0  0  0
    4.6493    2.8204   23.2401 C   0  0  0  0  0  0  0  0  0  0  0  0
    6.0283    3.0247   23.1989 C   0  0  0  0  0  0  0  0  0  0  0  0
    6.5785    4.2662   23.0788 C   0  0  0  0  0  0  0  0  0  0  0  0
    7.9450    4.4106   23.0484 C   0  0  0  0  0  0  0  0  0  0  0  0
    8.7560    3.3036   23.1391 C   0  0  0  0  0  0  0  0  0  0  0  0
    8.2078    2.0403   23.2609 C   0  0  0  0  0  0  0  0  0  0  0  0
    6.8458    1.9175   23.2891 C   0  0  0  0  0  0  0  0  0  0  0  0
    7.5641   -3.6282   27.7671 C   0  0  0  0  0  0  0  0  0  0  0  0
    6.3071   -2.7878   27.7277 C   0  0  0  0  0  0  0  0  0  0  0  0
    5.1222   -3.5126   27.7425 N   0  0  0  0  0  0  0  0  0  0  0  0
    4.5214   -3.9680   28.9099 C   0  0  0  0  0  0  0  0  0  0  0  0
    4.3311   -5.4875   28.7732 C   0  0  0  0  0  0  0  0  0  0  0  0
    3.6201   -5.7554   27.1705 S   0  0  0  0  0  0  0  0  0  0  0  0
    2.4326   -6.6893   27.2661 O   0  0  0  0  0  0  0  0  0  0  0  0
    4.6429   -6.2924   26.2015 O   0  0  0  0  0  0  0  0  0  0  0  0
    3.0966   -4.1792   26.5479 C   0  0  0  0  0  0  0  0  0  0  0  0
    4.2576   -3.2056   26.6465 C   0  0  0  0  0  0  0  0  0  0  0  0
  1  2  1  0  0  0
  2  3  1  0  0  0
  3  4  1  0  0  0
  4 19  1  0  0  0
 19 20  2  0  0  0
 20 21  1  0  0  0
 21 22  2  0  0  0
 22 23  1  0  0  0
 23 24  2  0  0  0
 24 25  1  0  0  0
 25 26  2  0  0  0
 26 27  1  0  0  0
 27 28  2  0  0  0
  4  5  1  0  0  0
  5  6  2  0  0  0
  5  7  1  0  0  0
  7  8  1  0  0  0
  8  9  1  0  0  0
  9 29  1  0  0  0
 29 30  1  0  0  0
 30 31  1  0  0  0
 31 32  1  0  0  0
 32 33  1  0  0  0
 33 34  1  0  0  0
 34 35  2  0  0  0
 34 36  2  0  0  0
 34 37  1  0  0  0
 37 38  1  0  0  0
  9 10  1  0  0  0
 10 11  2  0  0  0
 10 12  1  0  0  0
 12 13  2  0  0  0
 13 14  1  0  0  0
 14 15  2  0  0  0
 15 16  1  0  0  0
 15 17  1  0  0  0
 17 18  2  0  0  0
  7  2  1  0  0  0
 38 31  1  0  0  0
 18 12  1  0  0  0
 28 19  1  0  0  0
 18  7  1  0  0  0
 28 23  1  0  0  0
M  END
> <minimizedAffinity>
-7.13483

> <CNNscore>
0.1447772533

> <CNNaffinity>
6.3844518661

> <CNN_VS>
0.9243233800

> <CNNaffinity_variance>
0.1924346089

$$$$



 38 43  0  0  0  0  0  0  0  0999 V2000
   10.3132    1.9239   22.6280 C   0  0  0  0  0  0  0  0  0  0  0  0
    9.3298    0.8133   22.2769 C   0  0  0  0  0  0  0  0  0  0  0  0
    9.8529   -0.5267   22.5640 C   0  0  0  0  0  0  0  0  0  0  0  0
    9.0323   -1.1210   23.5653 N   0  0  0  0  0  0  0  0  0  0  0  0
    7.8614   -0.3509   23.6873 C   0  0  0  0  0  0  0  0  0  0  0  0
    6.7989   -0.6627   24.2757 O   0  0  0  0  0  0  0  0  0  0  0  0
    8.0254    0.9766   22.9898 C   0  0  0  0  0  0  0  0  0  0  0  0
    8.0946    2.0609   24.0312 C   0  0  0  0  0  0  0  0  0  0  0  0
    6.8335    2.6714   24.3677 N   0  0  0  0  0  0  0  0  0  0  0  0
    5.8705    2.8029   23.3622 C   0  0  0  0  0  0  0  0  0  0  0  0
    4.9344    3.6250   23.5344 O   0  0  0  0  0  0  0  0  0  0  0  0
    5.9372    2.0147   22.1428 C   0  0  0  0  0  0  0  0  0  0  0  0
    4.9185    2.1684   21.1791 C   0  0  0  0  0  0  0  0  0  0  0  0
    4.9506    1.4189   20.0538 C   0  0  0  0  0  0  0  0  0  0  0  0
    5.9852    0.5158   19.8738 C   0  0  0  0  0  0  0  0  0  0  0  0
    6.0194   -0.4696   18.4026 Cl  0  0  0  0  0  0  0  0  0  0  0  0
    6.9857    0.3553   20.8043 C   0  0  0  0  0  0  0  0  0  0  0  0
    6.9567    1.1341   21.9773 C   0  0  0  0  0  0  0  0  0  0  0  0
    9.3867   -2.3117   24.2878 C   0  0  0  0  0  0  0  0  0  0  0  0
    8.5973   -3.4316   24.2939 C   0  0  0  0  0  0  0  0  0  0  0  0
    8.9605   -4.5543   24.9774 N   0  0  0  0  0  0  0  0  0  0  0  0
   10.1211   -4.5483   25.6562 C   0  0  0  0  0  0  0  0  0  0  0  0
   10.9633   -3.4370   25.6854 C   0  0  0  0  0  0  0  0  0  0  0  0
   12.1420   -3.4328   26.3704 C   0  0  0  0  0  0  0  0  0  0  0  0
   12.9364   -2.3113   26.3610 C   0  0  0  0  0  0  0  0  0  0  0  0
   12.5425   -1.1949   25.6611 C   0  0  0  0  0  0  0  0  0  0  0  0
   11.3489   -1.1892   24.9634 C   0  0  0  0  0  0  0  0  0  0  0  0
   10.5723   -2.3149   24.9852 C   0  0  0  0  0  0  0  0  0  0  0  0
    6.6524    3.1080   25.7343 C   0  0  0  0  0  0  0  0  0  0  0  0
    6.5333    1.9559   26.7071 C   0  0  0  0  0  0  0  0  0  0  0  0
    5.2526    1.4333   26.8356 N   0  0  0  0  0  0  0  0  0  0  0  0
    4.9710    0.2705   27.5425 C   0  0  0  0  0  0  0  0  0  0  0  0
    4.2306   -0.6842   26.5916 C   0  0  0  0  0  0  0  0  0  0  0  0
    2.9668    0.2808   25.8058 S   0  0  0  0  0  0  0  0  0  0  0  0
    1.6391   -0.4448   25.8519 O   0  0  0  0  0  0  0  0  0  0  0  0
    3.3404    0.6173   24.3843 O   0  0  0  0  0  0  0  0  0  0  0  0
    2.8433    1.8167   26.6845 C   0  0  0  0  0  0  0  0  0  0  0  0
    4.2284    2.4294   26.7931 C   0  0  0  0  0  0  0  0  0  0  0  0
  1  2  1  0  0  0
  2  3  1  0  0  0
  3  4  1  0  0  0
  4 19  1  0  0  0
 19 20  2  0  0  0
 20 21  1  0  0  0
 21 22  2  0  0  0
 22 23  1  0  0  0
 23 24  2  0  0  0
 24 25  1  0  0  0
 25 26  2  0  0  0
 26 27  1  0  0  0
 27 28  2  0  0  0
  4  5  1  0  0  0
  5  6  2  0  0  0
  5  7  1  0  0  0
  7  8  1  0  0  0
  8  9  1  0  0  0
  9 29  1  0  0  0
 29 30  1  0  0  0
 30 31  1  0  0  0
 31 32  1  0  0  0
 32 33  1  0  0  0
 33 34  1  0  0  0
 34 35  2  0  0  0
 34 36  2  0  0  0
 34 37  1  0  0  0
 37 38  1  0  0  0
  9 10  1  0  0  0
 10 11  2  0  0  0
 10 12  1  0  0  0
 12 13  2  0  0  0
 13 14  1  0  0  0
 14 15  2  0  0  0
 15 16  1  0  0  0
 15 17  1  0  0  0
 17 18  2  0  0  0
  7  2  1  0  0  0
 38 31  1  0  0  0
 18 12  1  0  0  0
 28 19  1  0  0  0
 18  7  1  0  0  0
 28 23  1  0  0  0
M  END
> <minimizedAffinity>
-8.18952

> <CNNscore>
0.1310580820

> <CNNaffinity>
6.2687110901

> <CNN_VS>
0.8215652704

> <CNNaffinity_variance>
0.1814433783

$$$$
