


 37 41  0  0  0  0  0  0  0  0999 V2000
    6.8592   -1.5115   23.1420 N   0  0  0  0  0  0  0  0  0  0  0  0
    6.0367   -0.5703   22.4813 C   0  0  0  0  0  0  0  0  0  0  0  0
    4.7863   -0.6458   22.5518 O   0  0  0  0  0  0  0  0  0  0  0  0
   10.7606   -3.8321   25.5997 C   0  0  0  0  0  0  0  0  0  0  0  0
    9.7374   -4.4733   25.2926 O   0  0  0  0  0  0  0  0  0  0  0  0
   11.2257   -2.6372   24.9905 N   0  0  0  0  0  0  0  0  0  0  0  0
   12.4631   -1.9904   25.3627 C   0  0  0  0  0  0  0  0  0  0  0  0
   13.0664   -1.1765   24.2956 C   0  0  0  0  0  0  0  0  0  0  0  0
   12.6021   -1.4535   22.8974 C   0  0  0  0  0  0  0  0  0  0  0  0
   11.1031   -1.4443   22.8687 C   0  0  0  0  0  0  0  0  0  0  0  0
   10.3411   -0.8837   21.8915 C   0  0  0  0  0  0  0  0  0  0  0  0
    8.9490   -0.9211   21.9910 C   0  0  0  0  0  0  0  0  0  0  0  0
    8.2898   -1.5139   23.0594 C   0  0  0  0  0  0  0  0  0  0  0  0
    9.0739   -2.0806   24.0438 C   0  0  0  0  0  0  0  0  0  0  0  0
   10.4456   -2.0472   23.9528 C   0  0  0  0  0  0  0  0  0  0  0  0
   10.7551   -4.5461   27.9819 C   0  0  0  0  0  0  0  0  0  0  0  0
   11.5684   -4.3816   26.7200 C   0  0  0  0  0  0  0  0  0  0  0  0
    6.1951   -2.4633   23.9461 N   0  0  0  0  0  0  0  0  0  0  0  0
    5.8282   -1.9590   25.2788 C   0  0  0  0  0  0  0  0  0  0  0  0
    5.9011   -3.7745   23.5820 C   0  0  0  0  0  0  0  0  0  0  0  0
    5.8276   -4.2572   22.3040 C   0  0  0  0  0  0  0  0  0  0  0  0
    5.5576   -5.5962   22.0266 C   0  0  0  0  0  0  0  0  0  0  0  0
    5.3528   -6.4886   23.0555 C   0  0  0  0  0  0  0  0  0  0  0  0
    5.4198   -6.0285   24.3635 C   0  0  0  0  0  0  0  0  0  0  0  0
    5.1571   -7.1740   25.6586 Cl  0  0  0  0  0  0  0  0  0  0  0  0
    5.6886   -4.7005   24.6043 C   0  0  0  0  0  0  0  0  0  0  0  0
    6.6623    0.5174   21.7005 C   0  0  0  0  0  0  0  0  0  0  0  0
    6.1187    0.5709   20.3145 C   0  0  0  0  0  0  0  0  0  0  0  0
    6.6811   -0.1357   19.2534 C   0  0  0  0  0  0  0  0  0  0  0  0
    6.1491   -0.0435   18.0224 N   0  0  0  0  0  0  0  0  0  0  0  0
    5.0767    0.7079   17.7323 C   0  0  0  0  0  0  0  0  0  0  0  0
    4.5052    1.4177   18.7789 C   0  0  0  0  0  0  0  0  0  0  0  0
    3.4016    2.2008   18.5276 C   0  0  0  0  0  0  0  0  0  0  0  0
    2.8059    2.9169   19.5376 C   0  0  0  0  0  0  0  0  0  0  0  0
    3.3020    2.8672   20.8311 C   0  0  0  0  0  0  0  0  0  0  0  0
    4.4182    2.0672   21.0542 C   0  0  0  0  0  0  0  0  0  0  0  0
    5.0248    1.3459   20.0566 C   0  0  0  0  0  0  0  0  0  0  0  0
 16 17  1  0  0  0
 17  4  1  0  0  0
  4  5  2  0  0  0
  4  6  1  0  0  0
  6  7  1  0  0  0
  7  8  1  0  0  0
  8  9  1  0  0  0
  9 10  1  0  0  0
 10 11  2  0  0  0
 11 12  1  0  0  0
 12 13  2  0  0  0
 13  1  1  0  0  0
  1  2  1  0  0  0
  2  3  2  0  0  0
  2 27  1  0  0  0
 27 28  1  0  0  0
 28 29  2  0  0  0
 29 30  1  0  0  0
 30 31  2  0  0  0
 31 32  1  0  0  0
 32 33  2  0  0  0
 33 34  1  0  0  0
 34 35  2  0  0  0
 35 36  1  0  0  0
 36 37  2  0  0  0
  1 18  1  0  0  0
 18 19  1  0  0  0
 18 20  1  0  0  0
 20 21  2  0  0  0
 21 22  1  0  0  0
 22 23  2  0  0  0
 23 24  1  0  0  0
 24 25  1  0  0  0
 24 26  2  0  0  0
 13 14  1  0  0  0
 14 15  2  0  0  0
 15  6  1  0  0  0
 15 10  1  0  0  0
 37 28  1  0  0  0
 26 20  1  0  0  0
 37 32  1  0  0  0
M  END
> <minimizedAffinity>
-9.41409

> <CNNscore>
0.8059092760

> <CNNaffinity>
7.5810880661

> <CNN_VS>
6.1096692085

> <CNNaffinity_variance>
0.0664252117

$$$$



 38 43  0  0  0  0  0  0  0  0999 V2000
    6.8740   -4.4949   23.5201 C   0  0  0  0  0  0  0  0  0  0  0  0
    7.2625   -3.9052   24.8711 C   0  0  0  0  0  0  0  0  0  0  0  0
    8.6726   -4.1274   25.2086 C   0  0  0  0  0  0  0  0  0  0  0  0
    9.3158   -2.8594   25.2958 N   0  0  0  0  0  0  0  0  0  0  0  0
    8.3218   -1.8648   25.3351 C   0  0  0  0  0  0  0  0  0  0  0  0
    8.4597   -0.6577   25.6453 O   0  0  0  0  0  0  0  0  0  0  0  0
    6.9831   -2.4378   24.9408 C   0  0  0  0  0  0  0  0  0  0  0  0
    6.6002   -1.8817   23.5958 C   0  0  0  0  0  0  0  0  0  0  0  0
    5.8011   -0.6832   23.6311 N   0  0  0  0  0  0  0  0  0  0  0  0
    4.8883   -0.5246   24.6786 C   0  0  0  0  0  0  0  0  0  0  0  0
    3.9597    0.3125   24.5413 O   0  0  0  0  0  0  0  0  0  0  0  0
    4.9984   -1.3011   25.9024 C   0  0  0  0  0  0  0  0  0  0  0  0
    4.0665   -1.0733   26.9366 C   0  0  0  0  0  0  0  0  0  0  0  0
    4.1755   -1.7662   28.0930 C   0  0  0  0  0  0  0  0  0  0  0  0
    5.2021   -2.6851   28.2349 C   0  0  0  0  0  0  0  0  0  0  0  0
    5.3463   -3.5846   29.7537 Cl  0  0  0  0  0  0  0  0  0  0  0  0
    6.1179   -2.9183   27.2351 C   0  0  0  0  0  0  0  0  0  0  0  0
    6.0078   -2.1996   26.0290 C   0  0  0  0  0  0  0  0  0  0  0  0
   10.7418   -2.6867   25.3434 C   0  0  0  0  0  0  0  0  0  0  0  0
   11.4888   -3.0299   26.4396 C   0  0  0  0  0  0  0  0  0  0  0  0
   12.8427   -2.8678   26.4569 N   0  0  0  0  0  0  0  0  0  0  0  0
   13.4448   -2.3589   25.3677 C   0  0  0  0  0  0  0  0  0  0  0  0
   12.7346   -1.9920   24.2248 C   0  0  0  0  0  0  0  0  0  0  0  0
   13.3460   -1.4798   23.1192 C   0  0  0  0  0  0  0  0  0  0  0  0
   12.5977   -1.1396   22.0177 C   0  0  0  0  0  0  0  0  0  0  0  0
   11.2338   -1.3160   22.0311 C   0  0  0  0  0  0  0  0  0  0  0  0
   10.6044   -1.8345   23.1476 C   0  0  0  0  0  0  0  0  0  0  0  0
   11.3665   -2.1667   24.2338 C   0  0  0  0  0  0  0  0  0  0  0  0
    6.0027    0.2792   22.5707 C   0  0  0  0  0  0  0  0  0  0  0  0
    5.2218   -0.0550   21.3192 C   0  0  0  0  0  0  0  0  0  0  0  0
    4.7454    1.0465   20.6195 N   0  0  0  0  0  0  0  0  0  0  0  0
    5.0504    2.3581   20.9627 C   0  0  0  0  0  0  0  0  0  0  0  0
    3.7228    3.1093   21.1555 C   0  0  0  0  0  0  0  0  0  0  0  0
    2.7155    2.7027   19.7534 S   0  0  0  0  0  0  0  0  0  0  0  0
    2.1073    3.9536   19.1562 O   0  0  0  0  0  0  0  0  0  0  0  0
    1.6404    1.7117   20.1217 O   0  0  0  0  0  0  0  0  0  0  0  0
    3.7591    1.9115   18.5571 C   0  0  0  0  0  0  0  0  0  0  0  0
    4.5071    0.7779   19.2360 C   0  0  0  0  0  0  0  0  0  0  0  0
  1  2  1  0  0  0
  2  3  1  0  0  0
  3  4  1  0  0  0
  4 19  1  0  0  0
 19 20  2  0  0  0
 20 21  1  0  0  0
 21 22  2  0  0  0
 22 23  1  0  0  0
 23 24  2  0  0  0
 24 25  1  0  0  0
 25 26  2  0  0  0
 26 27  1  0  0  0
 27 28  2  0  0  0
  4  5  1  0  0  0
  5  6  2  0  0  0
  5  7  1  0  0  0
  7  8  1  0  0  0
  8  9  1  0  0  0
  9 29  1  0  0  0
 29 30  1  0  0  0
 30 31  1  0  0  0
 31 32  1  0  0  0
 32 33  1  0  0  0
 33 34  1  0  0  0
 34 35  2  0  0  0
 34 36  2  0  0  0
 34 37  1  0  0  0
 37 38  1  0  0  0
  9 10  1  0  0  0
 10 11  2  0  0  0
 10 12  1  0  0  0
 12 13  2  0  0  0
 13 14  1  0  0  0
 14 15  2  0  0  0
 15 16  1  0  0  0
 15 17  1  0  0  0
 17 18  2  0  0  0
  7  2  1  0  0  0
 38 31  1  0  0  0
 18 12  1  0  0  0
 28 19  1  0  0  0
 18  7  1  0  0  0
 28 23  1  0  0  0
M  END
> <minimizedAffinity>
-9.23962

> <CNNscore>
0.4561487734

> <CNNaffinity>
6.6273345947

> <CNN_VS>
3.0230505466

> <CNNaffinity_variance>
0.1269030571

$$$$



 33 36  0  0  0  0  0  0  0  0999 V2000
    6.7884   -1.5208   23.6901 N   0  0  0  0  0  0  0  0  0  0  0  0
    5.9137   -0.6018   23.0729 C   0  0  0  0  0  0  0  0  0  0  0  0
    4.6954   -0.5490   23.3497 O   0  0  0  0  0  0  0  0  0  0  0  0
   10.8802   -1.0922   23.4449 C   0  0  0  0  0  0  0  0  0  0  0  0
   10.1668   -0.7270   24.5557 C   0  0  0  0  0  0  0  0  0  0  0  0
    8.8445   -1.0025   24.5801 C   0  0  0  0  0  0  0  0  0  0  0  0
    8.1901   -1.6223   23.4626 C   0  0  0  0  0  0  0  0  0  0  0  0
    8.8892   -1.9947   22.3705 C   0  0  0  0  0  0  0  0  0  0  0  0
   10.2816   -1.7288   22.3878 C   0  0  0  0  0  0  0  0  0  0  0  0
   12.9480   -1.7405   22.4503 C   0  0  0  0  0  0  0  0  0  0  0  0
   12.3399   -0.7742   23.4417 C   0  0  0  0  0  0  0  0  0  0  0  0
   12.9025   -1.0448   24.8024 C   0  0  0  0  0  0  0  0  0  0  0  0
   12.5134    0.6206   23.0451 C   0  0  0  0  0  0  0  0  0  0  0  0
   12.6356    1.6883   22.7247 N   0  0  0  0  0  0  0  0  0  0  0  0
    6.3148   -2.6364   24.4763 C   0  0  0  0  0  0  0  0  0  0  0  0
    6.5623   -3.9788   24.0785 C   0  0  0  0  0  0  0  0  0  0  0  0
    7.4339   -4.8351   24.7012 C   0  0  0  0  0  0  0  0  0  0  0  0
    7.7068   -6.1043   24.2306 C   0  0  0  0  0  0  0  0  0  0  0  0
    7.0796   -6.4951   23.0620 C   0  0  0  0  0  0  0  0  0  0  0  0
    6.2024   -5.6505   22.3871 C   0  0  0  0  0  0  0  0  0  0  0  0
    5.5745   -6.1218   20.7966 Cl  0  0  0  0  0  0  0  0  0  0  0  0
    5.9394   -4.4055   22.8953 C   0  0  0  0  0  0  0  0  0  0  0  0
    6.4689    0.3109   22.0738 C   0  0  0  0  0  0  0  0  0  0  0  0
    5.9643    0.3349   20.7068 C   0  0  0  0  0  0  0  0  0  0  0  0
    6.5682   -0.4771   19.7843 C   0  0  0  0  0  0  0  0  0  0  0  0
    6.2590   -0.4601   18.4770 N   0  0  0  0  0  0  0  0  0  0  0  0
    5.2918    0.3844   18.0386 C   0  0  0  0  0  0  0  0  0  0  0  0
    4.6457    1.1994   18.9668 C   0  0  0  0  0  0  0  0  0  0  0  0
    3.5872    1.9833   18.4979 C   0  0  0  0  0  0  0  0  0  0  0  0
    2.8597    2.7600   19.3631 C   0  0  0  0  0  0  0  0  0  0  0  0
    3.2095    2.7338   20.7129 C   0  0  0  0  0  0  0  0  0  0  0  0
    4.2488    1.9547   21.1693 C   0  0  0  0  0  0  0  0  0  0  0  0
    4.9840    1.1795   20.2896 C   0  0  0  0  0  0  0  0  0  0  0  0
 10 11  1  0  0  0
 11 12  1  0  0  0
 11 13  1  0  0  0
 13 14  3  0  0  0
 11  4  1  0  0  0
  4  5  2  0  0  0
  5  6  1  0  0  0
  6  7  2  0  0  0
  7  1  1  0  0  0
  1 15  1  0  0  0
 15 16  1  0  0  0
 16 17  2  0  0  0
 17 18  1  0  0  0
 18 19  2  0  0  0
 19 20  1  0  0  0
 20 21  1  0  0  0
 20 22  2  0  0  0
  1  2  1  0  0  0
  2  3  2  0  0  0
  2 23  1  0  0  0
 23 24  1  0  0  0
 24 25  2  0  0  0
 25 26  1  0  0  0
 26 27  2  0  0  0
 27 28  1  0  0  0
 28 29  2  0  0  0
 29 30  1  0  0  0
 30 31  2  0  0  0
 31 32  1  0  0  0
 32 33  2  0  0  0
  7  8  1  0  0  0
  8  9  2  0  0  0
  9  4  1  0  0  0
 22 16  1  0  0  0
 33 24  1  0  0  0
 33 28  1  0  0  0
M  END
> <minimizedAffinity>
-7.91037

> <CNNscore>
0.7301700711

> <CNNaffinity>
7.2141828537

> <CNN_VS>
5.2675805092

> <CNNaffinity_variance>
0.0703812614

$$$$



 40 41  0  0  0  0  0  0  0  0999 V2000
    9.5415   -0.6798   23.1281 C   0  0  0  0  0  0  0  0  0  0  0  0
    9.4948    0.5346   22.7102 O   0  0  0  0  0  0  0  0  0  0  0  0
    8.5895   -1.6006   22.7333 N   0  0  0  0  0  0  0  0  0  0  0  0
    8.5943   -3.0274   23.1019 C   0  0  0  0  0  0  0  0  0  0  0  0
    7.2224   -3.2300   23.5984 C   0  0  0  0  0  0  0  0  0  0  0  0
    6.4187   -2.0612   23.0268 C   0  0  0  0  0  0  0  0  0  0  0  0
    7.3970   -1.5455   21.9616 C   0  0  0  0  0  0  0  0  0  0  0  0
    6.5713   -4.5427   23.2000 C   0  0  0  0  0  0  0  0  0  0  0  0
    6.3621   -5.2889   24.3189 F   0  0  0  0  0  0  0  0  0  0  0  0
    7.3874   -5.1385   22.2636 F   0  0  0  0  0  0  0  0  0  0  0  0
    5.3908   -4.1666   22.5645 F   0  0  0  0  0  0  0  0  0  0  0  0
    6.9816   -0.3404   21.3211 C   0  0  0  0  0  0  0  0  0  0  0  0
    7.0096   -0.1277   20.1095 O   0  0  0  0  0  0  0  0  0  0  0  0
    6.4685    0.7576   22.1048 N   0  0  0  0  0  0  0  0  0  0  0  0
    6.4144    0.6206   23.1199 H   0  0  0  0  0  0  0  0  0  0  0  0
    6.0453    1.9875   21.4094 C   0  0  0  0  0  0  0  0  0  0  0  0
    6.7802    3.1728   22.0084 C   0  0  0  0  0  0  0  0  0  0  0  0
    8.2101    3.0678   21.9646 N   0  0  0  0  0  0  0  0  0  0  0  0
    8.6153    2.9135   22.9339 H   0  0  0  0  0  0  0  0  0  0  0  0
    8.4660    2.2484   21.3627 H   0  0  0  0  0  0  0  0  0  0  0  0
    8.5933    3.9574   21.5905 H   0  0  0  0  0  0  0  0  0  0  0  0
    4.5712    2.1119   21.4228 C   0  0  0  0  0  0  0  0  0  0  0  0
    4.0533    2.9888   20.3040 C   0  0  0  0  0  0  0  0  0  0  0  0
    2.7803    3.7097   20.7053 C   0  0  0  0  0  0  0  0  0  0  0  0
    1.9269    3.7749   19.4758 C   0  0  0  0  0  0  0  0  0  0  0  0
    2.2706    2.5816   18.7649 N   0  0  0  0  0  0  0  0  0  0  0  0
    3.5717    2.1649   19.1407 C   0  0  0  0  0  0  0  0  0  0  0  0
    4.1796    1.2442   18.5515 O   0  0  0  0  0  0  0  0  0  0  0  0
    1.6407    2.1028   18.0714 H   0  0  0  0  0  0  0  0  0  0  0  0
   10.7013   -0.8916   24.0272 C   0  0  0  0  0  0  0  0  0  0  0  0
    9.8539   -2.3962   25.9220 C   0  0  0  0  0  0  0  0  0  0  0  0
    9.0686   -1.5222   26.4043 O   0  0  0  0  0  0  0  0  0  0  0  0
   10.6316   -2.1255   24.7931 N   0  0  0  0  0  0  0  0  0  0  0  0
   11.2347   -2.9640   24.4785 H   0  0  0  0  0  0  0  0  0  0  0  0
   10.9076   -4.5563   26.4986 C   0  0  0  0  0  0  0  0  0  0  0  0
    9.8651   -3.6086   26.5959 O   0  0  0  0  0  0  0  0  0  0  0  0
   12.0136   -0.8894   23.2325 C   0  0  0  0  0  0  0  0  0  0  0  0
   12.9861   -1.7575   23.9907 C   0  0  0  0  0  0  0  0  0  0  0  0
   12.5941    0.4633   23.0258 C   0  0  0  0  0  0  0  0  0  0  0  0
   11.7736   -1.4722   21.8428 C   0  0  0  0  0  0  0  0  0  0  0  0
 35 36  1  0  0  0
 36 31  1  0  0  0
 31 32  2  0  0  0
 31 33  1  0  0  0
 33 30  1  0  0  0
 30  1  1  0  0  0
  1  2  2  0  0  0
  1  3  1  0  0  0
  3  4  1  0  0  0
  4  5  1  0  0  0
  5  8  1  0  0  0
  8  9  1  0  0  0
  8 10  1  0  0  0
  8 11  1  0  0  0
  5  6  1  0  0  0
  6  7  1  0  0  0
  7 12  1  0  0  0
 12 13  2  0  0  0
 12 14  1  0  0  0
 14 16  1  0  0  0
 16 17  1  0  0  0
 17 18  1  0  0  0
 16 22  1  0  0  0
 22 23  1  0  0  0
 23 24  1  0  0  0
 24 25  1  0  0  0
 25 26  1  0  0  0
 26 27  1  0  0  0
 27 28  2  0  0  0
 30 37  1  0  0  0
 37 38  1  0  0  0
 37 39  1  0  0  0
 37 40  1  0  0  0
  7  3  1  0  0  0
 27 23  1  0  0  0
 33 34  1  0  0  0
 14 15  1  0  0  0
 18 19  1  0  0  0
 18 20  1  0  0  0
 18 21  1  0  0  0
 26 29  1  0  0  0
M  CHG 1  18   1
M  END
> <minimizedAffinity>
-6.69319

> <CNNscore>
0.4342820942

> <CNNaffinity>
6.5623116493

> <CNN_VS>
2.8498945236

> <CNNaffinity_variance>
0.1835929900

$$$$
